version 2
run Net1-0-20190223-20:06:25-1297
attr configname Net1
attr datetime 20190223-20:06:25
attr experiment Net1
attr inifile omnetpp.ini
attr iterationvars ""
attr iterationvarsf ""
attr measurement ""
attr network Net
attr processid 1297
attr repetition 0
attr replication #0
attr resultdir results
attr runnumber 0
attr seedset 0
param **.gen.numPrio 5
param **.queue.numPrio 5
param **.queue.preemptive false
param **.gen.interArrivalTimes "\"0.20 0.25 0.30 0.35 0.40\""
param **.queue.serviceTimes "\"0.20 0.25 0.30 0.35 0.40\""

vector 0 Net.queue qlen:vector ETV
attr interpolationmode sample-hold
attr title "queue length, vector"
vector 1 Net.queue queueingTime:vector ETV
attr interpolationmode none
attr title "queueing time at dequeue, vector"
attr unit s
vector 2 Net.queue responseTime:vector ETV
attr interpolationmode none
attr title "response time at end of service, vector"
attr unit s
vector 3 Net.sink lifetime:vector ETV
attr interpolationmode none
attr title "lifetime of arrived msg, vector"
attr unit s
vector 4 Net.sink arrivedMsg:vector ETV
attr interpolationmode none
attr title "number of arrived msg, vector"
0	0	0	0
0	5	0.378731002173	1
0	6	0.456512157467	2
0	7	0.653158559896	1
0	10	1.060768639064	2
0	11	1.304499100983	1
0	13	1.314290904573	0
0	21	2.159537949222	1
0	22	2.399649003735	2
0	26	2.755072313474	1
0	28	2.781458586215	0
0	30	2.859228918701	1
0	31	2.863880141324	2
0	32	3.039806919842	3
0	33	3.053533327089	2
0	37	3.357054027855	3
0	39	3.458298402742	2
0	41	3.479539978418	3
0	43	3.685077810016	4
0	44	3.962597288863	5
0	47	4.410906324648	4
0	50	4.539772013537	3
0	52	4.563400893357	4
0	54	4.690915860847	5
0	56	4.804241969511	6
0	58	4.954123377912	7
0	59	4.972120152536	6
0	61	4.991718454511	7
0	62	5.158648102498	6
0	64	5.180455531255	5
0	66	5.19342466621	4
0	68	5.209715807216	5
0	72	5.789510694345	6
0	73	5.871877758154	7
0	74	5.89331793746	8
0	76	5.961551699727	7
0	78	6.250329325815	8
0	80	6.435739554449	7
0	83	6.608412654649	6
0	86	6.719087870688	7
0	88	6.821229887242	8
0	90	6.932143853511	7
0	92	6.949422884921	8
0	94	7.109920576869	9
0	96	7.153847505786	8
0	98	7.2244255191	9
0	99	7.310181993827	10
0	100	7.439326577155	11
0	101	7.459380183755	10
0	106	7.73088470318	9
0	112	7.987990656909	10
0	113	7.994476197128	11
0	114	8.009113859502	12
0	115	8.043904467195	13
0	117	8.197682691452	12
0	119	8.240187149514	13
0	120	8.24063361556	14
0	121	8.24817202232	15
0	122	8.488805099397	16
0	123	8.819851949632	15
0	127	8.978443182134	14
0	129	9.021923329096	13
0	131	9.134766641401	12
0	133	9.222748876206	13
0	134	9.258662858419	14
0	138	9.648584143579	15
0	139	9.741363137009	16
0	141	9.815390625985	17
0	142	10.038614338007	16
0	144	10.057439022024	17
0	145	10.099313371971	16
0	147	10.853816399068	15
0	149	11.293723795861	14
0	151	11.345203920101	13
0	155	12.01175067173	14
0	156	12.090220253139	13
0	158	12.150638077903	14
0	159	12.183552421985	13
0	161	12.245800777619	12
0	165	12.49094141492	11
0	167	12.611317242312	12
0	168	12.650715475503	13
0	169	12.822294256888	12
0	171	12.991204986209	11
0	174	13.246968294361	10
0	176	13.365417873664	9
0	178	13.481181682926	10
0	179	13.583519401538	9
0	181	13.615294058854	8
0	184	13.924105765587	7
0	186	14.001530188823	8
0	188	14.406451879973	9
0	190	14.646649852419	8
0	193	14.744656313937	9
0	194	15.006690998804	10
0	195	15.184389014001	9
0	198	15.423456649984	8
0	200	15.54908746883	9
0	202	15.802942316522	8
0	204	15.899141026846	9
0	205	15.942219097294	8
0	207	15.953999353458	7
0	210	16.09275816417	6
0	214	16.159522590862	5
0	216	16.275872225218	6
0	218	16.403226781354	7
0	219	16.437068996124	8
0	220	16.461595943338	7
0	222	16.487154912548	6
0	224	16.541969792649	5
0	226	16.582580088111	4
0	229	16.610271269869	5
0	231	16.763233268199	4
0	233	16.885924406426	5
0	234	16.969809992947	6
0	235	17.009528336646	5
0	237	17.032465193871	4
0	240	17.336372539464	5
0	242	17.61768731016	4
0	245	17.848053900924	3
0	247	17.901307581163	4
0	248	18.010936864204	5
0	251	18.21518800129	4
0	253	18.281983260593	3
0	255	18.338973187488	2
0	257	18.361697508614	3
0	258	18.493319986517	4
0	260	18.562995518369	3
0	262	18.61360862927	2
0	264	18.639968614149	1
0	266	18.756601577922	0
0	277	19.103782984255	1
0	278	19.15073980362	0
0	280	19.302263765841	1
0	282	19.490234736682	0
0	284	19.771597668116	1
0	287	20.366349620351	2
0	288	20.434515017243	3
0	290	20.73001950744	2
0	293	20.794599982275	3
0	295	20.955705238267	2
0	297	21.061642868495	3
0	298	21.149576419121	4
0	300	21.728194528558	3
0	302	21.734756644974	4
0	305	22.354158757411	5
0	307	22.536825578033	4
0	309	22.583837747582	3
0	311	22.633023585232	4
0	312	22.763213978136	5
0	313	22.859224586466	4
0	316	23.002331268644	3
0	318	23.004868251525	2
0	322	23.156317966153	1
0	325	23.292290438829	2
0	326	23.34833036139	3
0	327	23.431893089549	4
0	328	23.483703270397	3
0	330	23.553561593725	4
0	335	23.900067321599	3
0	337	24.05677218268	2
0	339	24.057690593722	3
0	340	24.063671047109	4
0	341	24.067470260635	3
0	343	24.093196521948	4
0	344	24.166115929497	5
0	345	24.604097453913	4
0	349	25.779232049734	3
0	353	26.012028873792	4
0	355	26.075421413348	5
0	356	26.208985568297	4
0	360	26.249013858217	5
0	361	26.26283416795	4
0	363	26.275299371996	5
0	364	26.363765008858	6
0	365	26.401110163074	5
0	367	26.543759786255	6
0	368	26.544312949399	7
0	373	26.802256644371	6
0	375	26.872564708262	7
0	376	26.885039981737	8
0	378	27.01547633373	9
0	379	27.09610379575	10
0	380	27.315067333529	11
0	381	27.474996299892	10
0	383	27.629544613116	9
0	387	27.765403131289	8
0	389	27.810366145116	7
0	391	28.01170943639	8
0	392	28.057716436457	7
0	394	28.064159801552	8
0	395	28.09513017162	7
0	398	28.341157914668	6
0	401	28.592784376852	7
0	402	28.631434736949	6
0	404	28.666795765566	7
0	407	29.070377329779	6
0	409	29.181053505642	5
0	411	29.208111986775	6
0	412	29.236746941974	7
0	415	29.884735472744	8
0	418	30.000588926537	9
0	419	30.124127793254	8
0	421	30.261122853538	9
0	422	30.287082081476	10
0	424	30.609704998904	11
0	427	30.78020389582	10
0	431	31.01807216801	11
0	433	31.059376893763	12
0	434	31.059707958928	11
0	436	31.108784088124	12
0	438	31.261065539613	13
0	439	31.328757903788	14
0	440	31.470654641258	13
0	442	31.552765612764	14
0	443	31.657639001958	13
0	446	32.554183773239	12
0	451	32.738600380502	13
0	452	32.990749247667	14
0	453	33.016414961937	15
0	454	33.038294958427	16
0	455	33.172412675143	15
0	458	33.656378823862	14
0	460	33.850831539102	15
0	461	34.196074233973	14
0	464	34.573131659888	15
0	466	35.073715985998	14
0	468	35.22840235314	15
0	469	35.257680476211	14
0	474	35.392667971238	13
0	476	35.529319906271	12
0	478	35.627579037347	13
0	479	35.636281009677	14
0	480	35.658984801339	15
0	481	35.788029488012	14
0	483	35.80991195581	13
0	486	36.182403384333	14
0	488	36.412065019774	13
0	491	36.561292805663	14
0	492	36.819380692435	13
0	494	36.836455482918	14
0	499	37.12980608754	13
0	501	37.151980547818	14
0	502	37.18097838627	15
0	504	37.216669307619	16
0	506	37.233949114865	17
0	507	37.282884335045	16
0	509	37.389938884559	15
0	511	37.510514297298	16
0	512	37.533610903398	17
0	513	37.582085789056	16
0	515	37.66901912344	15
0	518	38.002110482992	16
0	523	38.336192046762	17
0	524	38.434716541567	18
0	526	38.463960964083	19
0	527	38.496111118667	18
0	531	38.58684723616	19
0	533	38.745052492821	20
0	535	38.800703249696	19
0	537	38.849443942272	20
0	538	38.853500704107	21
0	540	39.023890859458	22
0	541	39.083804661791	23
0	542	39.108157827793	22
0	544	39.123743497015	21
0	547	39.206292768586	22
0	548	39.438781322186	23
0	549	39.615125298239	22
0	551	39.754313553987	21
0	553	39.816943396502	20
0	555	39.833114435104	19
0	560	40.154078191215	20
0	561	40.325279444959	21
0	562	40.404346323165	22
0	563	40.466575278131	21
0	565	40.537244622877	20
0	567	40.588549088597	19
0	570	40.712246487675	18
0	574	40.995649199875	19
0	578	41.190345063548	20
0	580	41.246551390877	21
0	581	41.288455207361	20
0	583	41.307666922813	21
0	584	41.423428816533	22
0	585	41.447838990699	23
0	586	41.494596485887	22
0	588	41.515957508301	23
0	589	41.566115982461	22
0	591	41.613223397433	21
0	594	41.805818700861	20
0	596	42.008392833437	21
0	598	42.03020759198	20
0	601	42.314308322325	21
0	603	42.366032546247	20
0	605	42.41421218937	19
0	607	42.438379161809	18
0	609	42.544177240115	19
0	610	42.619020836649	20
0	612	42.794338738381	19
0	614	42.842306638469	18
0	616	43.028307133943	19
0	617	43.056981103691	18
0	621	43.686197464184	19
0	622	43.714877169479	18
0	625	43.82102138283	19
0	627	44.076727887918	20
0	629	44.270184046038	21
0	630	44.359219036604	20
0	633	44.440097243728	19
0	635	44.555153443968	20
0	636	44.6975421759	21
0	638	44.846440413134	20
0	640	45.097040414749	19
0	642	45.11820415936	20
0	643	45.167944585162	19
0	647	46.041275575905	20
0	650	46.281708736468	21
0	651	46.352782284894	20
0	654	46.409083492933	21
0	655	46.55740529892	22
0	656	46.699934202287	23
0	657	46.841557900917	22
0	660	46.929274994881	21
0	662	46.97702630972	20
0	664	47.202574843354	21
0	665	47.228616742085	20
0	668	47.771247560494	19
0	670	47.912266834661	20
0	671	47.980612908276	19
0	673	48.245904980855	18
0	676	48.648853089832	17
0	678	48.687150920211	18
0	679	48.77424343375	17
0	682	48.960166900489	16
0	684	49.037848934596	15
0	687	49.125870994768	16
0	690	49.42008490626	17
0	691	49.543296370074	18
0	692	49.688454451221	17
0	694	49.691064044554	18
0	696	49.751695613779	17
0	698	49.800868311287	16
0	701	50.015899143647	17
0	703	50.13408381734	18
0	705	50.189049559826	17
0	707	50.34597386731	18
0	708	50.415847029999	17
0	710	50.423877124566	16
0	712	50.456723000515	17
0	713	50.746108576433	16
0	715	50.874355463624	15
0	719	51.102334112138	14
0	722	51.247446969849	15
0	724	51.333714794774	16
0	726	51.526716580976	17
0	728	51.565470683721	18
0	729	51.749662677787	19
0	730	51.861441642783	20
0	732	52.366797916716	19
0	734	52.418941620381	20
0	737	52.52150828751	19
0	739	52.731176692761	20
0	740	52.796758938918	21
0	741	52.848363353342	20
0	743	53.339866553296	19
0	746	53.409218041249	18
0	748	53.555950785719	17
0	750	53.631853771394	16
0	752	53.702498043496	17
0	754	53.928055481063	16
0	756	54.200049820117	15
0	758	54.20866456315	16
0	760	54.419047060172	15
0	762	54.427037982046	14
0	764	54.64032540678	13
0	766	54.65178001283	14
0	768	54.989233682003	13
0	770	55.148366308401	14
0	773	55.725327733463	15
0	777	55.931179798622	16
0	778	56.038729149508	17
0	779	56.163496302848	18
0	780	56.223070603979	19
0	781	56.345257177629	18
0	783	56.401790100424	17
0	788	56.802153035647	18
0	789	56.815123712875	19
0	790	56.846509929368	20
0	793	57.564007489163	21
0	794	57.838811535672	22
0	795	58.125815196511	21
0	798	58.240989893913	20
0	801	58.461184555268	21
0	802	58.5643701161	22
0	803	59.543268006438	21
0	805	59.979507800543	20
0	809	60.259729798335	19
0	811	60.33385797355	18
0	813	60.341662426315	19
0	816	60.49639246352	20
0	818	60.664034477827	19
0	820	60.68863365022	20
0	821	60.721550221784	21
0	822	60.784018219989	20
0	824	60.845765176377	21
0	825	60.855414341284	20
0	827	60.924793876257	19
0	832	61.177328961969	18
0	834	61.262513977459	19
0	835	61.300676748454	20
0	836	61.3278516525	21
0	837	61.951592193619	20
0	841	62.102035171626	19
0	843	62.160112679158	18
0	845	62.343989349921	19
0	846	62.399747509678	20
0	849	62.828855765537	19
0	853	63.055328355698	20
0	854	63.113587663047	21
0	855	63.226131082914	20
0	857	63.250997464197	21
0	860	63.323093232935	20
0	862	63.324316354957	21
0	863	63.569817120298	22
0	864	63.572554975922	21
0	866	63.612434061444	20
0	868	63.618323012498	21
0	869	63.658604463033	20
0	871	63.800061984165	19
0	874	64.0580257736	18
0	876	64.17762915534	19
0	878	64.605382552022	20
0	879	64.610015391996	19
0	882	64.64610192767	18
0	885	64.824050563969	17
0	887	64.918067384978	16
0	889	64.927239942292	17
0	890	64.978936294924	18
0	891	65.010278009039	17
0	893	65.079691982273	16
0	895	65.148849844578	15
0	898	65.277936916428	14
0	900	65.326129951382	13
0	904	65.471764268378	12
0	906	65.536421238302	13
0	907	65.706904275208	14
0	908	65.719272871648	15
0	909	65.877792348685	14
0	911	65.880891152447	13
0	913	66.356571286739	12
0	918	66.669955057733	13
0	919	66.754984047828	12
0	921	66.777673438588	11
0	924	66.867139706461	10
0	926	66.887590302399	11
0	928	66.960050814253	12
0	930	67.133440425574	13
0	931	67.163261640735	12
0	934	67.234658401242	13
0	935	67.249773116527	12
0	937	67.275089666242	11
0	939	67.394252947621	12
0	940	67.435678309216	11
0	942	67.49799928832	12
0	946	67.799602097095	13
0	947	67.892864220225	14
0	948	67.964210831333	13
0	950	68.050589240497	14
0	951	68.238922968224	13
0	953	68.295298061941	12
0	956	68.632161843537	11
0	958	68.720789340591	12
0	959	68.81071260141	11
0	963	69.175750773903	12
0	964	69.197390625564	11
0	967	69.265784594561	10
0	969	69.342873517717	11
0	970	69.556023472856	12
0	971	69.651796708145	11
0	976	69.996554802103	12
0	977	70.032737374778	11
0	979	70.152450894929	12
0	982	70.253490372305	11
0	984	70.286534814215	12
0	985	70.318829233087	11
0	987	70.450542078175	10
0	989	70.489437037673	11
0	990	70.516822559898	12
0	992	70.54653796432	11
0	995	70.830133521537	12
0	997	71.116111515267	13
0	1000	71.183910887533	12
0	1002	71.229006928347	13
0	1003	71.458594768599	14
0	1004	71.465996266155	15
0	1005	71.566296111371	14
0	1007	71.614446777939	13
0	1010	72.20879612696	14
0	1011	72.351270167769	13
0	1015	72.482725580956	12
0	1017	72.542145229457	11
0	1019	72.665365514754	10
0	1021	72.698389823606	11
0	1024	72.781955809018	12
0	1025	72.808603974029	11
0	1028	73.013241139975	12
0	1029	73.036638366424	13
0	1030	73.204416082052	12
0	1032	73.267349911577	13
0	1033	73.439944291736	12
0	1035	73.445993296092	11
0	1038	73.811934965129	10
0	1040	73.948654314854	9
0	1042	74.002812190496	8
0	1044	74.004139076642	9
0	1045	74.077887239167	8
0	1048	74.4001220265	9
0	1050	74.974442796115	10
0	1053	75.890484629256	9
0	1055	75.980232354791	8
0	1057	76.054467748006	9
0	1058	76.102500073817	8
0	1060	76.183175904552	9
0	1062	76.54908964769	8
0	1064	76.589356173925	9
0	1066	76.76412278451	8
0	1069	76.898366680663	7
0	1072	76.962302294746	8
0	1073	77.009068043821	7
0	1075	77.145248011522	8
0	1076	77.164108800343	7
0	1078	77.215350409068	8
0	1080	77.620486887624	7
0	1082	77.879358165911	8
0	1083	78.149310603002	7
0	1085	78.266186251586	6
0	1089	78.367100545111	5
0	1091	78.524790478784	4
0	1093	78.605748964249	5
0	1094	78.635875091938	6
0	1095	78.737666968829	5
0	1097	78.764894796834	4
0	1099	78.808282023795	3
0	1103	79.136895291442	2
0	1105	79.173343798621	3
0	1106	79.242409509407	4
0	1108	79.73266289263	3
0	1110	79.860632251055	2
0	1112	79.887932705847	3
0	1114	80.229336624881	2
0	1116	80.476322982044	1
0	1118	80.484142698733	2
0	1121	80.709959003713	1
0	1123	80.793263118067	2
0	1126	80.982854675887	3
0	1127	81.151781785871	4
0	1129	81.21151767285	5
0	1131	81.46117370676	4
0	1133	81.506181730013	5
0	1135	81.619553589259	6
0	1136	81.648021154729	5
0	1138	81.683616874209	4
0	1141	81.911753651149	5
0	1142	82.025217773105	6
0	1144	82.333793872732	5
0	1146	82.344863359573	6
0	1148	82.501366943285	5
0	1150	82.539894265996	4
0	1152	82.680062766241	3
0	1154	82.702430264871	4
0	1157	83.087425981296	5
0	1158	83.247556387729	6
0	1159	83.459856755616	5
0	1161	83.516072854411	4
0	1163	83.714695447838	3
0	1166	84.404970665397	4
0	1167	84.419127240895	3
0	1169	84.722279151421	2
0	1173	85.061909556308	3
0	1176	85.227638452739	4
0	1177	85.260614728279	3
0	1179	85.280044572787	2
0	1181	85.29068855078	1
0	1184	85.42555160339	2
0	1187	85.518258051292	3
0	1188	85.559510738531	2
0	1190	85.566651568991	1
0	1192	85.597960512714	2
0	1194	85.728733279814	3
0	1195	85.792064129375	4
0	1196	86.006843630063	5
0	1198	86.173746551187	4
0	1200	86.430203723663	5
0	1204	86.668369390479	4
0	1206	86.703813586938	3
0	1208	86.774271391081	2
0	1210	86.875953157788	3
0	1211	86.909110424632	4
0	1212	86.919344890113	5
0	1213	87.055181873884	4
0	1217	87.417050979916	3
0	1219	87.442738462817	4
0	1220	87.501129431361	5
0	1221	87.539200779683	4
0	1223	87.545314243392	3
0	1225	87.644500167726	2
0	1227	87.778627733272	1
0	1232	88.142674847682	2
0	1234	88.242126308093	3
0	1237	88.43902710526	4
0	1238	88.490916796275	3
0	1240	88.501791541183	4
0	1241	88.563153157019	5
0	1242	88.613642166043	6
0	1245	88.818631803136	5
0	1248	88.864240248652	4
0	1252	89.052134807166	5
0	1253	89.093731395295	6
0	1254	89.142416649585	5
0	1256	89.147738892252	6
0	1257	89.285690221929	7
0	1258	89.308833180182	8
0	1260	89.799896197085	7
0	1262	89.934798426495	6
0	1264	89.938730281364	7
0	1265	90.113049060239	6
0	1267	90.292473274912	5
0	1269	90.339174283655	4
0	1272	90.601568075843	3
0	1275	90.80990817406	4
0	1276	90.89644334233	3
0	1278	90.926278874734	4
0	1281	91.163977829356	3
0	1283	91.250162423694	4
0	1284	91.257188147191	3
0	1287	91.378437861531	4
0	1290	91.581657760404	5
0	1291	91.713456389438	6
0	1292	91.86501195313	7
0	1295	92.194978158578	8
0	1296	92.226530108242	7
0	1298	92.261821880718	6
0	1300	92.274132349452	5
0	1302	92.321677184129	4
0	1305	92.482581869491	5
0	1307	92.677141817892	4
0	1309	92.719508227967	5
0	1311	92.842338181555	6
0	1312	92.948732261782	5
0	1315	93.07444764264	4
0	1317	93.088252013792	3
0	1319	93.092619101614	4
0	1320	93.304990161407	5
0	1324	93.747519127083	6
0	1325	93.782817033479	7
0	1328	93.994294877475	8
0	1329	94.043112428234	7
0	1331	94.221764775614	8
0	1332	94.233895828563	9
0	1335	94.576062645843	8
0	1337	94.591609525687	9
0	1338	94.620356630485	8
0	1340	94.644404588866	9
0	1341	95.194481270462	8
0	1344	95.640268259995	7
0	1346	95.91924434661	8
0	1348	96.284763023676	9
0	1351	96.413757592249	8
0	1355	96.59200552882	9
0	1356	96.594664394014	8
0	1358	96.702750801063	9
0	1360	96.761751545219	10
0	1362	96.847953523604	11
0	1363	96.988912115174	10
0	1366	97.048867066921	11
0	1367	97.074301033085	12
0	1368	97.307563227536	13
0	1369	97.553005020405	12
0	1371	97.579990238897	11
0	1373	97.808487162241	10
0	1377	98.845739515032	11
0	1382	99.078383477984	12
0	1383	99.232205400035	13
0	1384	99.275864919159	14
0	1385	99.358602217206	15
0	1386	99.375154582004	16
0	1387	99.472647152235	15
0	1389	99.49423377128	14
0	1391	99.53873940869	13
0	1393	99.659581273074	12
0	1395	99.860621542291	11
0	1397	100.043775327316	10
0	1399	100.250660458073	9
0	1401	100.378461620263	8
0	1405	100.924309036314	9
0	1406	101.110700903993	8
0	1409	101.1758792728	9
0	1410	101.420560910093	10
0	1411	101.518252156923	9
0	1414	101.793608372265	8
0	1416	101.990183269911	7
0	1418	102.031770540945	8
0	1420	102.349147719139	9
0	1421	102.418649113292	8
0	1424	102.817184964524	9
0	1428	103.262167012237	10
0	1429	103.425127028251	11
0	1432	103.521265903585	12
0	1433	103.531178769357	11
0	1436	103.664767288689	10
0	1438	103.764704987374	11
0	1439	103.78918913878	12
0	1440	103.896598684846	13
0	1441	104.0880483782	12
0	1443	104.26093300766	11
0	1446	104.460572790022	10
0	1450	104.562446624145	9
0	1452	104.718446251757	10
0	1453	104.793845643862	11
0	1454	104.810803622657	12
0	1455	105.076902613017	11
0	1457	105.09257476054	10
0	1460	105.343484863854	9
0	1463	105.431301915944	10
0	1464	105.704511559555	9
0	1466	105.721171360704	10
0	1467	105.744327921235	9
0	1469	106.12263715656	8
0	1471	106.33513069807	7
0	1474	106.731824544269	8
0	1477	107.183372922531	9
0	1478	107.239091029651	10
0	1479	107.256033452066	9
0	1481	107.381481989935	8
0	1483	107.665722932334	7
0	1485	108.018885084492	6
0	1487	108.323929069434	5
0	1490	108.461027526599	4
0	1493	108.662673744655	3
0	1495	108.729361119811	4
0	1497	108.799701585286	5
0	1499	108.863667609845	4
0	1502	108.93851285383	3
0	1504	108.99352765801	2
0	1506	109.072205330337	3
0	1507	109.141934240564	4
0	1508	109.165531483337	5
0	1511	109.473664696284	6
0	1512	109.5319148045	5
0	1514	109.547986060579	6
0	1516	109.793906754391	5
0	1519	109.998790108153	6
0	1520	110.192645540156	5
0	1522	110.196958109883	6
0	1524	110.308588078667	5
0	1527	110.482020308686	4
0	1529	110.507517151319	3
0	1531	110.555745827772	4
0	1533	110.612831051851	5
0	1534	110.890389464586	6
0	1536	111.244369102587	5
0	1539	111.314163680504	6
0	1540	111.332767142533	5
0	1542	111.574786983192	6
0	1544	112.083352540405	7
0	1545	112.454725860883	6
0	1548	112.653821419224	5
0	1552	112.883147092581	6
0	1554	112.983573738471	7
0	1555	113.127857762367	8
0	1556	113.199988839453	9
0	1557	113.268872257299	8
0	1560	113.373882809814	7
0	1562	113.600083239323	8
0	1566	114.009219680992	9
0	1567	114.072540843601	10
0	1568	114.153969711371	11
0	1571	114.559433055992	10
0	1573	114.576036631892	11
0	1574	114.714712543456	12
0	1575	114.789355781538	11
0	1578	115.028794187198	10
0	1580	115.326820091484	11
0	1582	115.743189837693	12
0	1583	115.823460600676	11
0	1585	116.016038996613	10
0	1589	116.187034715539	9
0	1591	116.342853316664	10
0	1592	116.392600792097	11
0	1593	116.498913260642	10
0	1596	116.587074412943	9
0	1598	116.886355532922	10
0	1599	117.06950736847	9
0	1602	117.296111221589	8
0	1606	117.488855378143	7
0	1608	117.562036951714	8
0	1609	117.66562380361	9
0	1610	117.676087549571	8
0	1612	117.751238193144	9
0	1613	118.202598705868	8
0	1615	118.338762253454	7
0	1617	118.636283593775	6
0	1621	119.146473879078	5
0	1623	119.210363464116	6
0	1624	119.296259521141	7
0	1626	119.687744073418	8
0	1629	120.116682757974	7
0	1631	120.284360798154	8
0	1632	120.388259645811	9
0	1635	120.756015655584	10
0	1637	120.875165680758	9
0	1639	120.931134379667	10
0	1640	121.137770679848	11
0	1641	121.385431010591	10
0	1643	121.453485609948	9
0	1645	121.648160567928	8
0	1648	122.362446956182	9
0	1651	122.710352525345	10
0	1652	122.726585249468	9
0	1655	122.942540795381	10
0	1656	123.066754842721	11
0	1659	123.483949010103	12
0	1660	123.537390832608	11
0	1663	123.591642911262	10
0	1666	123.748875770169	9
0	1668	123.769465590868	10
0	1669	123.875836936921	11
0	1670	123.941928504212	12
0	1671	123.983364819469	11
0	1674	124.033252649316	10
0	1676	124.180767804807	9
0	1678	124.328569916224	10
0	1679	124.423389862418	9
0	1681	124.929068694131	8
0	1683	125.057265851321	7
0	1685	125.175720120989	6
0	1687	125.257232359706	5
0	1690	125.729595097717	6
0	1692	125.839357941308	5
0	1694	126.052432655515	6
0	1696	126.631915354143	5
0	1698	126.657573515456	6
0	1700	127.086289552179	5
0	1702	127.090529844931	4
0	1705	127.268683244958	5
0	1706	127.271349510211	4
0	1709	127.505467993451	5
0	1710	127.609103217234	6
0	1711	127.678260371856	5
0	1714	127.745036957544	4
0	1718	128.037621536732	5
0	1719	128.092126166316	4
0	1721	128.106952683553	5
0	1722	128.170759727616	4
0	1725	128.247150496398	5
0	1726	128.368107400468	4
0	1729	128.535295000483	5
0	1730	128.642725967809	4
0	1732	128.679080065357	5
0	1734	129.133697221999	4
0	1736	129.136684192806	5
0	1737	129.247846020434	4
0	1739	129.47512390841	3
0	1742	129.579415122915	2
0	1744	129.78300810485	3
0	1747	130.379461995918	4
0	1748	130.495401233652	5
0	1749	130.608261535584	4
0	1752	130.927969571987	5
0	1754	131.234635575669	6
0	1757	131.520783836995	5
0	1759	131.605938760215	6
0	1760	131.631030316745	7
0	1761	131.765555224206	6
0	1764	132.656454749426	5
0	1766	132.726592177271	6
0	1767	132.992787766203	5
0	1769	133.044170279077	4
0	1772	133.085885227941	3
0	1774	133.113349670111	2
0	1776	133.215983937258	1
0	1779	133.361487685868	2
0	1781	133.628568060102	3
0	1782	133.675465838333	2
0	1784	133.900491760849	3
0	1786	134.246777506633	2
0	1788	134.333831997329	3
0	1791	134.418584072637	2
0	1795	134.517167643065	1
0	1797	134.658354112309	2
0	1798	134.676032298158	3
0	1799	134.766428303558	4
0	1800	134.790578907862	5
0	1801	134.895525460183	4
0	1805	135.251020333671	3
0	1807	135.275124203595	4
0	1808	135.395063949635	3
0	1810	135.5181811448	4
0	1812	135.692701878845	3
0	1814	135.952473991564	4
0	1815	136.365711349907	3
0	1817	136.485334582822	2
0	1820	136.93178284854	3
0	1821	137.031650698071	2
0	1823	137.233172162572	1
0	1825	137.630382557867	0
0	1832	138.509820207168	1
0	1835	138.742044200519	0
0	1838	138.836112104877	1
0	1840	138.865815911729	2
0	1842	139.016621956558	1
0	1844	139.043862327579	2
0	1845	139.066164437581	1
0	1847	139.146622068824	2
0	1848	139.174283546799	3
0	1849	139.219551763542	2
0	1851	139.351006743601	1
0	1854	139.487760333543	0
0	1856	139.651380206447	1
0	1857	139.691059874894	0
0	1866	140.076115282266	1
0	1867	140.146819371485	2
0	1868	140.205724006752	3
0	1869	140.286657661424	2
0	1872	140.325614830506	1
0	1874	140.610815086587	0
0	1876	140.622827155643	1
0	1879	140.983615659955	2
0	1881	141.093458506618	1
0	1883	141.098439071845	2
0	1884	141.117480540357	1
0	1886	141.358631478331	2
0	1887	141.361572670059	1
0	1891	141.768462806018	2
0	1892	141.854903261291	3
0	1893	141.991851094445	2
0	1895	142.251723431558	1
0	1898	142.769103941381	2
0	1899	142.983863667798	1
0	1901	144.250200748518	0
0	1906	144.634346875653	1
0	1907	144.660913430317	2
0	1908	144.692554875843	1
0	1910	144.745537726054	0
0	1912	144.760513880974	1
0	1916	145.118603411974	2
0	1918	145.167415294097	3
0	1920	145.338626516727	4
0	1921	145.438943914701	5
0	1923	145.528808730451	6
0	1925	145.657110129119	5
0	1927	145.674029345258	4
0	1929	145.732163522891	3
0	1931	145.799023090962	4
0	1934	145.832166236295	5
0	1935	145.969451740058	4
0	1937	146.128648666921	5
0	1938	146.131768502318	6
0	1940	146.160605084283	5
0	1942	146.280446734521	4
0	1944	146.435852579562	5
0	1947	146.632787143186	4
0	1950	146.911911525227	5
0	1951	146.926082314838	6
0	1952	146.954279560849	5
0	1954	147.17941832107	6
0	1955	147.696541165763	5
0	1957	147.793482163379	4
0	1959	148.042534132501	3
0	1962	148.304208082312	2
0	1964	148.39790661386	3
0	1970	148.844360574087	4
0	1971	148.875907654677	5
0	1972	148.890811529752	6
0	1973	149.041938425956	7
0	1974	149.115889634181	8
0	1977	149.205739682499	7
0	1979	149.316025177998	6
0	1981	149.423614848143	7
0	1982	149.449241150613	8
0	1983	149.814217289996	7
0	1985	150.118639953158	6
0	1987	150.198025002997	5
0	1991	150.505059353701	6
0	1992	150.510351684474	5
0	1994	150.580884478635	6
0	2001	150.978982875485	5
0	2003	150.995625312093	6
0	2005	151.12680643658	7
0	2006	151.127030808668	8
0	2007	151.159402255102	9
0	2008	151.196374005925	10
0	2009	151.2121732562	11
0	2011	151.298448462287	10
0	2013	151.339948734717	11
0	2014	151.425548995052	10
0	2018	151.593137934639	11
0	2021	151.730344448018	12
0	2022	151.796208583273	11
0	2024	151.827309403178	12
0	2025	151.944223194909	13
0	2026	152.028109793935	14
0	2027	152.271669123412	13
0	2030	152.516457751436	12
0	2033	152.609186340113	11
0	2035	152.654421494937	12
0	2036	152.663455730601	11
0	2038	152.775938817041	10
0	2040	152.84738803631	9
0	2042	152.861656367875	10
0	2043	152.99139015997	9
0	2046	153.301522326461	8
0	2048	153.382895678161	9
0	2052	153.690165462555	10
0	2053	153.823020330777	11
0	2054	153.852065356874	12
0	2055	153.989592009254	11
0	2057	154.09247975384	10
0	2063	154.473273115128	11
0	2064	154.509384544946	10
0	2066	154.514862114505	9
0	2068	154.563734218708	10
0	2069	154.579876235312	11
0	2070	154.626299669335	12
0	2071	154.65185995246	11
0	2073	155.302228388059	10
0	2077	155.665547806885	9
0	2079	155.800787366493	10
0	2080	155.801174349639	11
0	2081	155.991970555918	10
0	2083	156.02693511083	9
0	2085	156.045948460503	8
0	2087	156.342937080964	7
0	2089	156.390952988568	6
0	2092	156.732122087842	5
0	2094	156.740790466773	6
0	2096	156.921719423372	5
0	2098	157.080803564858	4
0	2100	157.148658357902	5
0	2102	157.425512530904	4
0	2107	157.601448691224	5
0	2108	157.668552736335	4
0	2111	157.781725712557	5
0	2113	157.823121446547	6
0	2114	157.894766788484	7
0	2115	158.000725302241	8
0	2116	158.104651379867	9
0	2118	158.253560519362	8
0	2120	158.267008344891	7
0	2122	158.27284860215	6
0	2124	158.399793142089	5
0	2126	158.444518796606	6
0	2128	158.915592458842	5
0	2130	158.942223886596	6
0	2131	158.970232449016	5
0	2134	159.247110765515	4
0	2136	159.318977309897	5
0	2138	159.691069154736	4
0	2141	159.798922768297	5
0	2142	159.985785443924	4
0	2144	160.037779517581	5
0	2145	160.050004492474	4
0	2148	160.380442020737	5
0	2151	160.811945399205	4
0	2153	160.972682166532	5
0	2154	161.030507623012	6
0	2157	161.681373738566	7
0	2159	161.723434131469	8
0	2161	162.006288077744	9
0	2162	162.140736076688	8
0	2164	162.161473711835	7
0	2166	162.218190546703	6
0	2168	162.273763314172	7
0	2170	162.3139765572	6
0	2174	162.514775299477	5
0	2177	162.577206454887	6
0	2178	162.683113073888	5
0	2180	162.683604208345	6
0	2182	162.73802974793	7
0	2183	162.782878491316	6
0	2185	162.804193350749	5
0	2188	162.87377566674	6
0	2189	162.999151049675	7
0	2191	163.128956147038	8
0	2192	163.129647765954	7
0	2194	163.293679640023	6
0	2196	163.319864110616	7
0	2200	163.733402281558	8
0	2201	163.73342434734	9
0	2203	163.978018559016	10
0	2205	164.08342234575	11
0	2206	164.340866305952	10
0	2208	164.356617500017	11
0	2210	164.456433044507	10
0	2212	164.472833566355	9
0	2215	164.735891210844	10
0	2216	164.752737672323	9
0	2219	164.850178797261	10
0	2220	164.944178234883	9
0	2222	165.002401328901	8
0	2227	165.106186754668	9
0	2228	165.276265929562	8
0	2230	165.346355115619	9
0	2231	165.375433994803	10
0	2232	165.392567573986	11
0	2233	165.397476554282	10
0	2237	165.901221468226	11
0	2238	166.022421030602	10
0	2240	166.047629972189	9
0	2242	166.151002488231	10
0	2244	166.709791782604	11
0	2245	166.71980019998	10
0	2248	166.792082966795	9
0	2250	166.963158791303	8
0	2254	167.027393706556	9
0	2255	167.142604535184	8
0	2258	167.274620521803	9
0	2260	167.324364915911	10
0	2261	167.523171043097	9
0	2263	167.53844715613	10
0	2264	167.557767144337	9
0	2266	167.597190407648	10
0	2267	167.695514557997	9
0	2270	168.063662431394	10
0	2271	168.189381973924	9
0	2273	168.36976999839	8
0	2276	168.7388579235	9
0	2277	168.930934660145	8
0	2281	169.234579229785	7
0	2283	169.246925298987	8
0	2284	169.260905414273	9
0	2285	169.293727791982	8
0	2287	169.749144450553	7
0	2290	170.030708492497	6
0	2292	170.18152539112	5
0	2294	170.253847892444	6
0	2296	170.680576942708	7
0	2298	171.099547590095	6
0	2300	171.147840540727	7
0	2302	171.27586771129	6
0	2304	171.451909590535	7
0	2305	171.661651875832	6
0	2307	171.695353515948	5
0	2309	171.815716625005	4
0	2314	172.820696490823	5
0	2315	172.858891793554	6
0	2317	173.046875835248	7
0	2318	173.213286960124	8
0	2320	173.41035935522	7
0	2322	173.418044102687	6
0	2325	173.518088607677	5
0	2327	173.576129114222	6
0	2329	173.758097522278	5
0	2332	173.763716612228	6
0	2333	173.968069395191	7
0	2334	174.058192898256	8
0	2338	174.484617309931	9
0	2340	174.620652380534	8
0	2342	174.651422007795	9
0	2343	174.670516616842	10
0	2346	174.890627460495	11
0	2347	174.932963336539	10
0	2351	175.093765895078	11
0	2352	175.152741793061	12
0	2353	175.292434818454	13
0	2354	175.341923705143	14
0	2355	175.469199810997	13
0	2359	176.064378536817	14
0	2360	176.101581457892	15
0	2362	176.205953703202	14
0	2364	176.461549477004	15
0	2365	176.483960617063	14
0	2368	176.6221435448	13
0	2370	176.909120116138	14
0	2373	177.110851845092	13
0	2376	177.256191672516	14
0	2377	177.349642004017	15
0	2378	177.472858961112	16
0	2379	177.566963992035	15
0	2383	177.656327838323	14
0	2386	177.870037270538	15
0	2387	177.943956649551	16
0	2388	178.005475513831	17
0	2389	178.098182349717	16
0	2392	178.528777144557	17
0	2393	178.541377599311	16
0	2395	178.824436722641	15
0	2397	178.82731553756	14
0	2400	178.928349387933	13
0	2402	179.141525610767	14
0	2404	179.235631576689	13
0	2406	179.508961806688	14
0	2408	180.243919914402	15
0	2409	180.511067324866	14
0	2411	180.515331853628	13
0	2413	180.515439429441	12
0	2419	180.954914478668	13
0	2420	180.974268778331	14
0	2422	181.027454760156	15
0	2423	181.062611316661	14
0	2425	181.070737430464	15
0	2428	181.23199811201	14
0	2430	181.318710468801	15
0	2432	181.338258340664	14
0	2434	181.389568000626	15
0	2436	181.529614836104	16
0	2437	181.635841141026	17
0	2438	181.731546768013	18
0	2440	182.134528858801	19
0	2443	182.515414100171	18
0	2445	182.764804004354	19
0	2447	182.790891106737	20
0	2448	183.085680168635	21
0	2449	183.201955134884	20
0	2451	183.428756898177	19
0	2453	183.576270706338	18
0	2455	183.72727699353	17
0	2457	183.791327631024	16
0	2460	183.811798890918	15
0	2463	184.092026155289	16
0	2464	184.204199847585	15
0	2466	184.211564861129	16
0	2467	184.443487525044	15
0	2471	184.884478455245	14
0	2473	184.901953961029	13
0	2475	184.917137326445	14
0	2477	184.970607017351	15
0	2479	185.265056121301	16
0	2480	185.421130891811	17
0	2482	185.721788915468	16
0	2484	185.730263442541	15
0	2489	185.860302015703	16
0	2490	185.926994086307	15
0	2492	186.081923664001	14
0	2494	186.096660510587	15
0	2495	186.136548601067	16
0	2497	186.157267562959	17
0	2499	186.343101996856	16
0	2501	186.436741433154	17
0	2502	186.505305897365	16
0	2505	186.582118141588	17
0	2507	186.807710483923	18
0	2508	186.852382108842	17
0	2510	186.98621950189	18
0	2511	187.057078433302	17
0	2513	187.259764572918	16
0	2517	187.85582808807	15
0	2519	188.016387275304	16
0	2520	188.047989932975	15
0	2522	188.073180709343	16
0	2523	188.212982903477	15
0	2525	188.228183599857	14
0	2528	189.273334329911	13
0	2530	189.506940115854	14
0	2532	189.762461476977	13
0	2534	189.839658066782	12
0	2537	189.932046013549	13
0	2538	190.045346931587	12
0	2540	190.146239053438	13
0	2543	190.517061149193	14
0	2544	190.692550761511	13
0	2548	190.800149353763	14
0	2549	191.046588913065	15
0	2551	191.085280709874	16
0	2552	191.115400183396	15
0	2555	191.278098808585	14
0	2557	191.361744688322	15
0	2558	191.443174821066	14
0	2560	191.445611777222	13
0	2562	191.449136660637	12
0	2564	191.518022157459	13
0	2565	191.657653662707	12
0	2569	191.957729527542	11
0	2572	192.062837949522	12
0	2574	192.108263161829	13
0	2575	192.269674515313	12
0	2577	192.314572269261	13
0	2578	192.32382529597	12
0	2580	192.372184141188	13
0	2585	193.099467699269	12
0	2587	193.132682479347	11
0	2589	193.181984438978	12
0	2590	193.219590622817	13
0	2591	193.240770415352	14
0	2592	193.324136066808	15
0	2593	193.580972305304	14
0	2596	193.772680263678	13
0	2599	193.964165468004	14
0	2601	194.14758380349	15
0	2602	194.358228865885	16
0	2603	194.379122502167	15
0	2606	194.627051268817	14
0	2608	194.635773999016	13
0	2611	194.823741608977	14
0	2612	195.045646317462	15
0	2615	195.445976045519	14
0	2617	195.450598885908	15
0	2618	195.47281784906	14
0	2621	195.742776210148	15
0	2622	195.92652229559	14
0	2624	195.93276477757	15
0	2626	196.109741208125	14
0	2628	196.164659151366	13
0	2630	196.328379355709	14
0	2631	196.422777092673	13
0	2633	196.510986148937	12
0	2635	196.675172666844	11
0	2637	196.681769275613	10
0	2639	196.825801741327	9
0	2644	197.144612682337	10
0	2645	197.26396190095	11
0	2646	197.441037032228	12
0	2648	197.812459471999	13
0	2652	198.729435189267	14
0	2653	198.781371881162	13
0	2655	198.890444629389	14
0	2657	198.988136188621	15
0	2659	199.240517212528	14
0	2661	199.271299392129	15
0	2664	199.386195434538	14
0	2666	199.433088908759	15
0	2667	199.443534340711	14
0	2669	199.459502918744	13
0	2671	199.638996427627	14
0	2672	199.66408513397	15
0	2673	199.707958299756	14
0	2675	199.737997460604	13
0	2678	199.954551647514	12
0	2681	200.10700090119	13
0	2682	200.132270631634	12
0	2684	200.380027255664	13
0	2685	200.678616159676	12
0	2689	201.03993458677	13
0	2690	201.198981351285	12
0	2692	201.264308297921	11
0	2694	201.326896214427	12
0	2696	201.472142353895	11
0	2698	201.51650599761	10
0	2702	201.758853757683	11
0	2703	201.836218312209	12
0	2704	202.023665060206	13
0	2707	202.152529406409	12
0	2709	202.400782502069	13
0	2710	202.440398137746	14
0	2711	202.447514132102	13
0	2713	202.570451356549	12
0	2715	202.869651843664	11
0	2721	203.180615898701	10
0	2723	203.186810010064	9
0	2726	203.229147890304	10
0	2727	203.265188387437	11
0	2728	203.369207623803	12
0	2729	203.38836964619	13
0	2730	203.525059335809	14
0	2732	203.762130107843	13
0	2734	203.971276237209	12
0	2736	203.999005831223	13
0	2738	204.333848987719	14
0	2740	204.980398122276	13
0	2742	205.005781208289	14
0	2744	205.725035620041	15
0	2745	206.630895568596	14
0	2747	206.752525421034	13
0	2750	207.191818700638	12
0	2752	207.410170624384	13
0	2755	207.583067860881	12
0	2757	207.77577004317	11
0	2759	207.821904805514	12
0	2760	207.830937748416	13
0	2761	207.969744636368	12
0	2764	208.005182285482	11
0	2767	208.27219178623	12
0	2770	208.419619543954	13
0	2771	208.587322933659	14
0	2772	208.599653018614	15
0	2773	208.624843127694	14
0	2776	208.744047736347	13
0	2778	208.746156193253	12
0	2782	208.9856075305	13
0	2784	209.08811167031	12
0	2786	209.186026173576	13
0	2787	209.197251189633	14
0	2789	209.342344569668	15
0	2792	209.611197172679	16
0	2793	209.809965450549	17
0	2795	209.851721890663	18
0	2798	210.043836101822	17
0	2800	210.079016469485	16
0	2802	210.139080852526	17
0	2803	210.148695305562	16
0	2805	210.22690201732	17
0	2806	210.317506856928	18
0	2807	210.623292761554	17
0	2810	210.935131763697	16
0	2812	211.030549970351	15
0	2814	211.042690666569	14
0	2818	211.222118051338	15
0	2819	211.226328178742	14
0	2823	211.383186941696	15
0	2826	211.465185513403	16
0	2827	211.53058922695	17
0	2828	211.539282169095	18
0	2831	211.686857043688	19
0	2832	211.700479791724	20
0	2834	211.922554467216	21
0	2835	211.960164664389	22
0	2836	212.137165871539	21
0	2838	212.210541985096	22
0	2839	212.242658469787	21
0	2842	212.290484862101	20
0	2846	212.397608641391	19
0	2849	212.517769487082	18
0	2851	212.548250962962	19
0	2852	212.59498985584	20
0	2854	212.605485309604	21
0	2856	212.745780806874	22
0	2857	212.814491913905	21
0	2859	212.904220738709	22
0	2860	213.011873024314	23
0	2861	213.017701853698	22
0	2863	213.032396919961	21
0	2865	213.2038334777	20
0	2869	213.512833626945	21
0	2870	213.526092808381	22
0	2871	213.614372759558	21
0	2873	213.680977079581	20
0	2875	213.718415733434	19
0	2877	213.815815605259	18
0	2882	214.313833594849	19
0	2883	214.416022482437	20
0	2884	214.507437007332	19
0	2886	214.515353263631	18
0	2888	214.525586210441	17
0	2890	214.544207282917	18
0	2892	215.094768481774	19
0	2895	215.505057874178	20
0	2896	215.548130762021	21
0	2898	215.750193824938	20
0	2900	215.763374382462	19
0	2902	215.889371067772	20
0	2904	216.155489864123	19
0	2906	216.191078202065	20
0	2907	216.715231874276	19
0	2909	216.778388684232	18
0	2912	217.22238628116	19
0	2913	217.262679755098	18
0	2917	217.594011843579	19
0	2918	217.628662211846	20
0	2922	217.935575027491	21
0	2923	217.971358843169	22
0	2924	218.084608819951	23
0	2925	218.476316708188	22
0	2928	218.812552974903	21
0	2931	218.86671784839	22
0	2934	219.110763848116	21
0	2936	219.133152476447	22
0	2937	219.178295789797	23
0	2938	219.319809909448	24
0	2939	219.50759359493	23
0	2942	219.72487432423	22
0	2945	219.897248248256	23
0	2946	219.972243431751	22
0	2948	220.160464909312	23
0	2951	220.734262598762	24
0	2953	220.976323229209	23
0	2955	220.999939875485	24
0	2956	221.12440202732	25
0	2960	221.470585270093	26
0	2961	221.514023007499	25
0	2963	221.589189205792	24
0	2965	221.748482902715	25
0	2966	221.759889580663	26
0	2967	221.85108363529	25
0	2970	222.197902432563	26
0	2971	222.328103566349	25
0	2973	222.348932827016	24
0	2975	223.013309917762	23
0	2977	223.129520938606	22
0	2979	223.136411827868	21
0	2981	223.200263354473	20
0	2985	223.696970665791	21
0	2986	223.801422619456	22
0	2987	223.857951679152	21
0	2989	223.877496545199	20
0	2992	224.294918967093	19
0	2995	224.492659072767	18
0	2997	224.549553968675	19
0	2999	224.6947553566	20
0	3000	224.880960990491	21
0	3003	225.21301694348	20
0	3005	225.216640903547	19
0	3008	225.419380690341	20
0	3010	225.442842898294	21
0	3012	225.623808426258	22
0	3014	225.739446418007	23
0	3015	225.741294748113	22
0	3017	225.762736490987	23
0	3018	225.816317190511	22
0	3020	225.832020617008	21
0	3024	225.996501865098	22
0	3025	226.227685807635	23
0	3026	226.257931566127	22
0	3028	226.276151713457	23
0	3029	226.303366605683	22
0	3031	226.334305128586	21
0	3035	227.393430105889	22
0	3036	227.564853671989	23
0	3038	227.716972356905	22
0	3040	227.8954542522	23
0	3041	228.223991617592	22
0	3044	228.303886935092	21
0	3046	228.442165686228	20
0	3049	228.578884770396	21
0	3050	228.777427156358	22
0	3051	229.112914217542	21
0	3053	229.325285579966	20
0	3058	229.758112219734	21
0	3059	229.912551658899	22
0	3060	229.914607252089	23
0	3062	230.39517591468	22
0	3064	230.600373238416	23
0	3066	230.748469446729	22
0	3068	230.836468043104	21
0	3070	230.989320395556	22
0	3071	231.18599735661	21
0	3073	231.560130213711	20
0	3077	231.896068408836	21
0	3079	232.036186423981	22
0	3080	232.145018022482	21
0	3082	232.270641855689	22
0	3083	232.744817386413	21
0	3088	233.224282195931	20
0	3092	233.417368101562	21
0	3093	233.441930816582	22
0	3094	233.516950344671	23
0	3095	233.526987064922	24
0	3096	233.594797184141	25
0	3098	234.266239504994	26
0	3100	234.79548987494	25
0	3102	234.951654176635	26
0	3103	235.01818766	25
0	3106	235.43234297541	24
0	3109	235.610339949724	23
0	3111	235.655558733266	22
0	3114	235.688576726234	23
0	3115	235.893000575841	24
0	3116	235.979476987775	25
0	3120	236.528232061285	24
0	3122	236.588788886719	25
0	3123	236.614247770278	26
0	3124	236.615939843599	27
0	3125	236.646628887364	26
0	3127	236.738318722417	25
0	3129	236.866151951673	24
0	3132	237.271997004393	23
0	3134	237.363339291227	24
0	3136	237.652607210364	23
0	3139	237.730199046576	24
0	3141	238.012477586593	25
0	3142	238.196727900713	26
0	3143	238.362849634629	25
0	3146	238.420042596161	24
0	3148	238.452377645337	23
0	3151	238.700356493476	24
0	3152	238.842739293955	23
0	3154	238.968361470489	24
0	3156	239.244014013243	23
0	3158	239.281082566953	24
0	3160	239.450248685392	23
0	3162	239.7431738025	24
0	3163	239.880103403681	23
0	3168	240.228977539921	22
0	3172	240.434051755576	23
0	3173	240.457392977091	24
0	3174	240.520857566242	25
0	3175	240.547438547226	26
0	3176	240.583275948257	25
0	3181	240.632921014119	26
0	3183	240.878704908614	25
0	3185	240.909367062419	26
0	3186	240.910171168118	27
0	3187	240.920748272652	26
0	3189	240.92564849387	27
0	3190	241.126570549555	28
0	3191	241.304935964249	27
0	3193	241.526074540237	26
0	3195	241.622193675347	25
0	3199	241.904972096409	24
0	3201	242.008290147652	23
0	3203	242.040086429915	24
0	3204	242.053466782126	25
0	3205	242.112446651008	24
0	3208	242.481471204264	25
0	3209	242.588516055103	24
0	3211	242.626530440455	23
0	3213	242.826856291061	22
0	3215	242.954500251681	21
0	3217	242.969268595615	20
0	3220	243.251783474321	19
0	3222	243.327073196905	20
0	3223	243.438787479209	19
0	3226	243.686531317894	18
0	3229	243.88441892529	19
0	3230	243.997765766354	18
0	3232	244.062732089143	19
0	3233	244.183648402702	18
0	3235	244.484988585063	17
0	3237	244.582731254284	16
0	3241	245.217016270592	17
0	3242	245.231383980414	16
0	3246	245.450734471021	15
0	3248	245.452091156083	16
0	3249	245.589865950854	17
0	3250	245.650344652141	16
0	3252	245.659607972955	17
0	3253	245.715917056921	16
0	3255	245.727422689524	15
0	3257	245.755405225244	14
0	3260	245.800671446663	13
0	3262	245.814526219994	12
0	3264	246.098120945016	13
0	3265	246.306838639597	12
0	3267	246.727112143264	11
0	3269	246.728674265292	10
0	3272	247.082926323528	11
0	3273	247.693376323203	10
0	3275	247.814129796603	9
0	3277	247.937203167298	8
0	3279	247.940019123558	7
0	3281	248.022791721674	6
0	3283	248.044639789818	5
0	3285	248.088200575581	4
0	3288	248.393414877906	3
0	3291	248.520583257388	4
0	3292	248.613254678712	3
0	3294	248.801157442399	4
0	3295	248.958228385568	3
0	3297	249.052470953434	2
0	3299	249.134551141076	1
0	3301	249.280386906319	0
0	3309	250.039350425092	1
0	3310	250.175171622158	0
0	3312	250.190826162587	1
0	3313	250.252293053565	0
0	3322	251.715114983686	1
0	3323	251.843183294927	2
0	3324	251.919842658307	3
0	3325	252.20842440571	2
0	3327	252.378731134497	1
0	3329	252.447470245569	0
0	3341	254.06094691845	1
0	3342	254.149643555939	0
0	3361	257.535489024514	1
0	3362	257.563108826263	0
0	3364	257.62229653489	1
0	3365	258.058849314946	0
0	3373	259.020738130737	1
0	3374	259.207468360116	2
0	3375	259.43498253363	1
0	3378	259.625852357162	0
0	3381	259.845427455052	1
0	3382	260.09196014201	2
0	3383	260.424627506471	1
0	3385	260.695030087006	0
0	3396	261.585985496819	1
0	3397	261.710866625462	0
0	3428	264.074662775002	1
0	3429	264.081176468185	2
0	3430	264.108900051741	3
0	3431	264.110087761799	4
0	3432	264.137075730813	3
0	3434	264.223435193342	4
0	3436	264.345315510751	3
0	3439	264.496929851719	2
0	3442	264.53259223211	1
0	3444	264.562662661737	2
0	3446	264.666612249127	1
0	3449	264.733880131286	2
0	3450	264.801271665765	3
0	3453	264.956154919596	4
0	3454	264.960615879134	3
0	3456	264.990546227795	4
0	3458	265.125368118022	5
0	3459	265.195909139523	6
0	3460	265.236393469178	5
0	3463	265.345246799013	6
0	3466	265.571211454252	7
0	3467	265.750836077753	8
0	3468	265.761919302327	7
0	3471	265.834973609562	8
0	3472	266.079291185313	9
0	3473	266.325706832029	8
0	3475	266.693161457025	7
0	3477	266.86310988501	6
0	3480	267.113949804483	5
0	3482	267.281809782756	4
0	3484	267.36071698045	5
0	3489	267.69816253301	6
0	3492	267.815882326549	7
0	3493	267.847713780257	8
0	3494	267.976923525034	9
0	3495	268.009787455014	10
0	3496	268.090988237163	9
0	3498	268.110978838347	10
0	3499	268.240256995208	9
0	3501	268.326465058132	8
0	3504	268.652089065101	7
0	3507	268.821302828077	6
0	3510	268.910147991054	7
0	3511	269.052979195442	8
0	3512	269.080698121963	7
0	3514	269.088257354183	6
0	3516	269.12379481907	7
0	3517	269.172600552582	6
0	3519	269.277390191691	5
0	3521	269.430597974722	4
0	3524	269.55756294958	3
0	3528	269.679855947459	2
0	3531	269.843333137335	3
0	3532	269.935392706006	4
0	3533	269.976370560424	5
0	3534	270.015686894223	4
0	3536	270.072454386145	3
0	3538	270.072765804777	4
0	3539	270.129515728817	3
0	3541	270.226504403884	2
0	3543	270.239960447631	1
0	3550	270.629227571789	2
0	3551	270.700906712541	1
0	3553	270.761471961132	0
0	3555	270.789974792474	1
0	3556	270.802368517235	2
0	3557	270.922645396495	3
0	3558	270.924076688619	4
0	3559	270.965325215248	3
0	3561	271.000737284344	2
0	3567	271.10897136944	1
0	3569	271.309832990343	2
0	3570	271.313279274174	3
0	3571	271.345172351895	4
0	3572	271.404533828972	5
0	3573	271.498881478751	4
0	3577	271.687301894486	3
0	3579	271.851378806573	4
0	3580	271.98529040666	5
0	3582	272.356619930651	6
0	3585	272.699589811324	7
0	3586	272.743296635263	8
0	3588	273.567516435855	9
0	3592	274.167629741806	8
0	3594	274.198648970364	7
0	3596	274.293686141477	8
0	3598	274.329466715981	9
0	3599	274.34467199343	8
0	3602	274.432225743593	9
0	3604	274.611635852462	10
0	3606	274.719457350504	11
0	3608	274.905321823533	12
0	3609	274.927902992993	13
0	3610	275.05528948306	14
0	3612	275.06766457989	13
0	3614	275.076458839417	12
0	3616	275.125583205539	11
0	3618	275.325596059053	10
0	3620	275.359904818726	11
0	3622	275.63017897071	10
0	3624	275.714296924042	11
0	3625	275.798043143111	10
0	3627	275.845811511532	9
0	3631	276.337853074421	10
0	3632	276.348629291573	11
0	3633	276.443605740455	10
0	3636	276.559214169852	9
0	3639	276.662639743062	8
0	3641	276.773069208546	7
0	3643	276.82148438983	8
0	3644	276.890670267205	9
0	3645	277.015181192693	8
0	3647	277.128047392433	7
0	3651	277.570258743403	8
0	3652	277.608978842731	9
0	3654	277.801370437569	8
0	3658	277.997414248023	7
0	3660	278.045103873831	8
0	3661	278.227617230028	7
0	3663	278.25968860467	8
0	3664	278.276463266018	9
0	3666	278.353365863982	8
0	3670	278.635403265256	9
0	3671	278.638615777248	8
0	3673	278.670204983758	9
0	3674	278.851984204622	10
0	3676	279.084454673001	9
0	3678	279.223717798219	8
0	3680	279.315737549776	9
0	3681	279.400655819888	8
0	3683	279.434323935186	7
0	3688	279.767448851793	8
0	3689	279.867151378434	7
0	3691	279.883625238584	8
0	3692	279.924207368506	9
0	3693	279.945009482488	8
0	3695	280.169905503534	7
0	3697	280.463443367342	6
0	3701	280.942632282258	7
0	3703	281.076242223081	8
0	3707	281.257391375755	9
0	3708	281.428108734981	8
0	3710	281.452546424772	9
0	3711	281.522850258178	10
0	3712	281.528567159749	11
0	3714	281.579126710333	10
0	3716	281.585940533528	9
0	3720	281.860147000566	10
0	3721	281.922625939019	9
0	3723	282.068102561448	10
0	3724	282.083615519122	11
0	3726	282.295987974263	10
0	3728	282.311725720305	9
0	3730	282.394029557206	8
0	3732	282.400003324354	7
0	3734	282.443567630433	8
0	3737	282.816157324304	9
0	3739	282.978181609116	10
0	3740	283.000249655614	9
0	3742	283.215048324215	10
0	3743	283.266503870794	9
0	3745	283.665035101022	8
0	3747	283.742758653768	7
0	3750	284.265293330236	6
0	3752	284.278868701863	7
0	3755	284.695211834162	8
0	3758	284.981296702089	9
0	3760	285.128799755032	10
0	3761	285.201192298871	9
0	3763	285.271472877072	8
0	3765	285.274474997372	9
0	3767	285.318351245081	10
0	3770	285.577583497449	11
0	3771	285.62445610408	12
0	3772	285.657320097312	11
0	3774	285.676412888365	12
0	3778	286.033804672606	13
0	3779	286.273410213177	14
0	3780	286.297926392262	15
0	3782	286.514405656427	14
0	3785	286.697712953618	15
0	3786	286.727692267151	14
0	3788	286.898041533386	15
0	3790	287.242525296774	14
0	3795	287.415026286992	15
0	3796	287.450913132149	14
0	3799	287.597164755322	15
0	3800	287.621246579271	16
0	3801	287.640034662857	17
0	3803	287.807448978667	18
0	3804	287.853221625419	17
0	3807	288.000022001747	18
0	3808	288.000359087443	17
0	3810	288.007922383176	16
0	3812	288.162406277431	17
0	3814	288.549070927647	18
0	3815	288.581543920325	17
0	3818	288.946974529403	18
0	3820	289.476450086275	17
0	3823	289.644469842959	18
0	3824	289.870836207316	19
0	3826	290.424890263502	18
0	3829	290.440367448746	17
0	3832	290.612161761152	18
0	3833	290.730628281358	17
0	3836	290.732743194712	18
0	3837	290.789126608588	19
0	3839	291.032578817794	20
0	3841	291.286254504086	21
0	3842	291.311872858066	20
0	3845	291.403650172066	19
0	3847	291.440339914397	20
0	3849	291.619039341604	21
0	3850	291.669994347339	20
0	3853	291.824898908454	21
0	3854	291.979044275475	22
0	3857	292.229371437441	21
0	3859	292.296122805125	22
0	3860	292.428793347896	21
0	3863	292.466614690802	22
0	3864	292.696477429035	21
0	3866	292.744145512981	22
0	3867	292.873891443414	21
0	3869	293.021801567704	20
0	3872	293.573283747244	19
0	3876	293.843484613151	20
0	3877	293.936808953734	21
0	3878	294.079640513702	20
0	3880	294.103305638093	21
0	3882	294.345234815912	20
0	3884	294.383955221665	19
0	3886	294.561996900378	20
0	3889	294.666703048753	19
0	3891	294.946668290556	20
0	3892	294.950971702092	21
0	3894	295.132574543901	20
0	3897	295.369158915615	21
0	3898	295.469994976679	22
0	3899	295.477127298466	21
0	3901	295.477469006293	20
0	3903	295.542813181468	19
0	3905	295.645932728523	18
0	3907	295.80773422467	17
0	3910	296.055427669866	16
0	3912	296.225287478879	17
0	3914	296.416514754124	16
0	3916	296.701184235956	17
0	3917	297.090979160129	16
0	3919	297.3803954725	15
0	3921	297.388377039148	14
0	3924	297.503098418614	13
0	3926	297.744081859726	14
0	3927	297.869306425039	13
0	3929	297.930862529169	12
0	3932	298.246831605101	13
0	3934	298.448920415706	12
0	3936	298.482319437182	11
0	3938	298.499559941201	10
0	3940	298.711690698861	11
0	3945	298.951209042834	10
0	3947	299.076994787355	11
0	3948	299.095018577372	12
0	3950	299.183009617786	13
0	3951	299.212413965771	14
0	3952	299.405865219553	15
0	3953	299.692137868633	14
0	3955	299.869866179134	13
0	3957	299.958886402014	12
0	3961	300.236068935631	11
0	3963	300.2652100109	10
0	3965	300.33324905393	9
0	3967	300.402215246312	10
0	3968	300.412962508894	11
0	3969	300.901679090522	10
0	3973	301.015482792842	9
0	3977	301.208516443998	10
0	3978	301.266124937359	11
0	3979	301.316837062978	12
0	3980	301.422332903754	13
0	3984	301.714831645018	12
0	3986	301.768378602967	11
0	3988	301.76860873222	12
0	3989	301.778128371043	11
0	3991	301.891464229023	12
0	3993	301.95590841032	13
0	3996	302.219900649026	14
0	3997	302.284566873443	13
0	3999	302.308937486888	14
0	4000	302.393112828775	13
0	4002	302.435596243307	14
0	4004	302.654024063632	13
0	4006	302.690581548781	12
0	4009	302.88203114662	13
0	4011	303.15881566415	14
0	4012	303.21290186901	15
0	4016	303.68923799089	16
0	4017	303.79355867463	15
0	4019	303.82389800931	16
0	4020	303.889089843963	17
0	4021	303.914931226849	16
0	4025	304.30710404547	17
0	4027	304.3667961668	18
0	4028	304.632277596132	17
0	4030	304.652969806321	16
0	4032	304.665250657021	17
0	4033	304.743795091472	16
0	4037	305.156684404721	17
0	4038	305.157872862301	18
0	4039	305.220550477864	17
0	4041	305.601288558718	16
0	4043	305.693471821742	15
0	4046	306.437359849004	14
0	4048	306.4761293549	15
0	4051	307.027018729065	14
0	4053	307.132278964435	15
0	4054	307.228687963768	14
0	4056	307.312949905196	15
0	4058	307.630996826063	16
0	4059	307.640911293446	15
0	4063	307.794580578997	14
0	4065	307.840166996507	13
0	4067	307.858734677355	12
0	4069	307.873832168371	11
0	4074	308.003415410903	12
0	4075	308.024056276424	13
0	4076	308.279110944156	14
0	4077	308.281723552188	15
0	4078	308.290284404565	16
0	4081	308.783265166746	17
0	4082	308.85678049839	16
0	4085	309.004574932477	17
0	4086	309.018675760659	16
0	4088	309.176746321894	17
0	4090	309.670999223079	18
0	4091	309.845557877794	17
0	4093	310.091467352499	16
0	4096	310.340317148989	15
0	4098	310.399458908084	16
0	4099	310.787376602687	15
0	4101	310.941015763308	14
0	4104	311.021763006346	13
0	4106	311.075416601993	12
0	4108	311.306421265726	13
0	4109	311.499043981555	12
0	4111	311.707363421909	11
0	4115	312.517218936309	12
0	4116	312.756705101651	11
0	4118	312.813301202761	12
0	4119	312.846784400028	11
0	4121	313.182054473347	10
0	4123	313.352835786006	9
0	4127	313.757760865523	10
0	4128	313.842184345112	11
0	4129	314.068606286014	10
0	4131	314.073164315464	9
0	4135	314.392959622242	8
0	4137	314.403461108321	9
0	4139	314.578063873362	10
0	4141	314.711525693787	11
0	4142	314.912769673051	12
0	4146	315.420146495103	13
0	4147	315.433317337094	12
0	4149	315.45112758143	13
0	4150	315.507566544979	14
0	4151	315.797439911866	13
0	4154	315.903238892222	12
0	4156	316.098615347681	13
0	4157	316.103849555158	12
0	4159	316.197811923447	11
0	4162	316.245441543865	10
0	4164	316.400259067825	9
0	4166	316.400909859638	8
0	4169	316.544893580257	9
0	4170	316.702723325205	8
0	4172	316.753997549708	9
0	4176	317.165743951973	10
0	4177	317.326952857124	9
0	4179	317.377829307653	8
0	4182	317.40812778233	9
0	4183	317.459546505171	10
0	4184	317.698826735027	9
0	4186	317.703903437325	10
0	4187	317.803088770217	9
0	4190	318.378274361057	10
0	4194	318.618211183949	9
0	4196	318.740424500088	10
0	4197	318.879698729046	11
0	4198	318.890455361606	12
0	4201	319.566428780956	11
0	4203	319.681119639071	12
0	4204	319.732288732958	13
0	4210	320.287894320378	14
0	4211	320.306796844307	15
0	4212	320.332683894003	16
0	4213	320.462348143317	17
0	4214	320.583397794957	18
0	4217	320.787172785631	17
0	4219	320.787343816688	16
0	4221	320.814874631263	15
0	4223	320.91951307118	16
0	4224	320.94403823898	17
0	4226	321.268670595737	16
0	4228	321.285388552565	15
0	4232	321.430216637688	14
0	4234	321.568560597216	15
0	4235	321.638721461086	16
0	4236	321.668782713806	17
0	4239	321.892179202396	16
0	4241	321.962924068311	15
0	4244	322.072457886174	16
0	4245	322.095806654839	15
0	4247	322.179076300746	16
0	4248	322.270258607895	17
0	4249	322.287693096394	16
0	4251	322.47446799262	15
0	4253	322.5817513454	14
0	4257	323.551760482008	15
0	4259	323.647324447185	14
0	4262	323.791658475388	15
0	4264	323.872017493768	16
0	4266	324.079672257399	17
0	4267	324.131090727854	18
0	4269	324.365089868628	19
0	4270	324.557796897432	20
0	4272	325.272001970183	21
0	4273	325.294425343756	20
0	4275	325.353993961971	19
0	4277	326.199305162613	18
0	4281	326.612292500399	19
0	4283	326.632550618656	18
0	4285	326.664810377616	17
0	4287	326.700778308463	18
0	4288	326.741901726331	17
0	4290	326.772887912271	16
0	4293	326.917161071581	17
0	4295	327.081546897975	16
0	4297	327.113112464403	17
0	4298	327.236728882847	16
0	4300	327.266731640803	17
0	4301	327.38391971202	16
0	4305	327.653984685217	15
0	4307	327.784219579193	16
0	4308	327.807015477907	15
0	4310	327.951844350139	16
0	4311	328.04864437824	15
0	4313	328.180762261142	14
0	4315	328.622633250858	13
0	4318	329.095257753785	12
0	4320	329.137039440487	13
0	4324	329.700632676482	14
0	4326	329.855615552114	15
0	4327	329.943674297039	16
0	4328	329.976940957872	15
0	4331	330.120777036384	16
0	4333	330.39811291307	17
0	4336	330.558509032769	16
0	4338	330.602222528475	17
0	4341	330.734905511363	18
0	4342	330.772291760784	19
0	4343	330.935615158569	18
0	4346	330.974232520917	17
0	4348	330.988347030138	18
0	4349	331.011902217977	19
0	4351	331.241960231944	20
0	4354	331.468121554006	21
0	4355	331.562061072421	22
0	4356	331.627595008068	23
0	4358	331.843719104726	22
0	4361	331.911065045161	21
0	4363	331.922020965624	20
0	4365	331.963658244437	19
0	4367	332.001490815174	20
0	4368	332.024965793167	19
0	4370	332.188678655471	20
0	4371	332.715800392953	19
0	4373	332.778207744807	18
0	4378	332.961378448432	17
0	4380	332.964521170708	16
0	4382	333.020252914211	15
0	4384	333.160969666966	16
0	4385	333.167149519213	17
0	4386	333.188887678604	18
0	4388	333.313259893864	17
0	4390	333.344486505648	16
0	4393	333.406254332935	15
0	4395	333.485635456786	14
0	4399	333.574729601741	15
0	4400	333.695113542896	16
0	4403	333.743989460369	15
0	4406	333.785858792977	14
0	4408	333.833320773228	15
0	4409	333.863754730415	16
0	4411	334.010675466189	15
0	4413	334.013934562002	16
0	4414	334.024520568338	17
0	4415	334.080864138047	18
0	4416	334.195825772513	17
0	4418	334.22021896332	16
0	4420	334.250871081444	17
0	4421	334.486684630186	16
0	4426	334.72804656949	15
0	4429	334.866196402372	16
0	4430	334.920420834863	17
0	4432	335.021979580137	18
0	4434	335.103531550547	19
0	4436	335.169278173651	18
0	4439	335.286930458951	19
0	4440	335.38501568289	20
0	4441	335.44320639792	21
0	4443	335.487513079309	20
0	4445	335.534686931526	21
0	4446	335.591070432044	20
0	4448	335.76136338136	21
0	4449	335.816867397958	20
0	4452	335.982038922301	19
0	4454	336.152162893734	18
0	4456	336.246179432387	19
0	4459	336.567502597669	20
0	4461	336.71355028568	21
0	4463	336.895957303583	22
0	4465	337.08345076942	23
0	4466	337.293225036735	24
0	4467	337.468527729266	23
0	4469	337.494457984172	22
0	4474	338.027584274013	23
0	4475	338.12462837451	24
0	4476	338.160883674941	23
0	4478	338.240908066673	24
0	4479	338.324275722994	23
0	4482	338.516577747502	22
0	4485	338.656398743602	23
0	4487	338.908723989449	24
0	4490	339.175572979187	25
0	4491	339.363531345008	26
0	4493	339.406837989714	27
0	4496	339.665285107196	28
0	4497	339.829710948162	29
0	4498	339.871884542031	30
0	4499	340.063908874568	29
0	4501	340.083880531372	28
0	4507	340.406635685919	29
0	4510	340.47636287771	30
0	4511	340.476951032576	29
0	4513	340.48742510371	30
0	4514	340.496821132065	29
0	4516	340.568372996137	30
0	4518	340.58062902944	29
0	4520	340.59067812525	28
0	4522	340.735373504241	29
0	4524	340.774150996706	30
0	4525	340.877880161692	31
0	4526	341.035773068358	32
0	4527	341.16893064311	31
0	4529	341.261226556742	30
0	4531	341.297791166204	29
0	4534	341.61553343655	30
0	4535	341.655466873116	29
0	4541	342.062873935991	30
0	4542	342.080397442941	31
0	4543	342.090894746355	32
0	4544	342.160775586579	31
0	4546	342.286388724158	32
0	4547	342.317138397013	31
0	4550	342.576360281096	30
0	4552	342.724904566154	31
0	4554	343.153122400528	30
0	4556	343.180055423742	31
0	4557	343.300418006842	30
0	4559	343.429609935485	29
0	4562	343.612695472048	28
0	4566	343.840044778196	29
0	4567	343.890542158245	28
0	4569	344.047539530159	29
0	4570	344.078162832494	30
0	4572	344.447342832508	29
0	4574	344.495471476417	28
0	4576	344.626816366605	27
0	4578	344.629154660876	28
0	4579	344.631873661196	27
0	4582	344.723958349769	26
0	4587	344.935312257047	27
0	4588	345.124794818793	28
0	4589	345.135117665826	29
0	4590	345.1616188705	30
0	4591	345.563730122436	29
0	4593	345.710091820175	28
0	4595	345.75697825577	27
0	4597	346.092822873169	26
0	4599	346.243282622082	25
0	4602	346.623651966299	24
0	4605	346.761784441656	23
0	4607	346.817370574651	24
0	4608	346.84459179518	23
0	4611	346.958610481863	24
0	4612	347.16445215499	25
0	4615	348.04341376976	24
0	4617	348.141123261652	25
0	4619	348.334383131993	26
0	4620	348.365284564554	25
0	4625	348.523328021573	24
0	4627	348.608508908293	25
0	4628	348.688186112233	26
0	4629	348.73754110655	27
0	4630	348.764980852593	28
0	4631	348.830048881081	27
0	4633	348.944501225517	26
0	4635	348.947002976762	25
0	4640	349.512306891281	26
0	4641	349.539699508742	27
0	4643	349.57187958172	26
0	4645	349.647915224639	27
0	4646	349.701167208576	26
0	4648	349.792582040666	25
0	4650	349.837363090196	24
0	4652	349.842807493447	25
0	4653	349.967315917166	24
0	4656	350.324089337891	23
0	4658	350.361656975249	22
0	4660	350.395727150878	23
0	4663	350.786836771397	24
0	4664	350.879550479962	25
0	4667	351.267604796698	26
0	4668	351.506860448906	27
0	4669	351.629875924468	26
0	4671	351.810943764618	25
0	4673	351.890796572067	24
0	4676	352.463227636459	23
0	4678	352.539086548237	22
0	4681	352.643988527178	23
0	4685	352.865695811543	24
0	4687	353.025548489401	25
0	4688	353.105210806274	26
0	4689	353.113602947712	27
0	4690	353.250000194672	28
0	4691	353.588632185219	27
0	4694	353.619060413199	26
0	4697	353.777295281836	25
0	4699	353.902499605435	24
0	4701	353.910437683178	25
0	4702	353.928484006913	26
0	4703	354.347352345771	25
0	4707	354.589237818118	24
0	4709	354.655511438793	25
0	4710	354.75887395011	26
0	4714	355.098668429032	27
0	4717	355.229509593414	28
0	4718	355.257355630736	29
0	4719	355.41776948538	30
0	4720	355.480842893184	31
0	4722	355.919860399161	32
0	4723	356.016829674198	31
0	4726	356.317703296975	30
0	4728	356.332173033272	29
0	4730	356.441449001919	30
0	4731	356.675608941738	29
0	4733	356.781600996847	28
0	4736	356.899975232725	27
0	4738	357.050021838677	26
0	4740	357.078714172608	25
0	4742	357.090936089915	26
0	4743	357.254291970052	25
0	4745	357.421041331258	24
0	4748	357.631273867389	23
0	4751	357.744449528932	24
0	4753	357.774932742739	23
0	4755	357.915613034444	22
0	4757	358.027361931391	23
0	4758	358.05320785098	24
0	4759	358.268180331921	23
0	4762	358.324585178986	22
0	4766	358.58181813342	23
0	4768	358.765038341873	22
0	4770	358.76652747038	23
0	4772	358.857756327483	24
0	4775	358.98306184611	25
0	4776	359.103266423289	26
0	4777	359.1603232232	25
0	4782	359.24209391234	26
0	4783	359.248319923359	27
0	4784	359.272025864574	26
0	4786	359.294216038043	25
0	4788	359.3234757858	24
0	4790	359.467277526939	25
0	4791	359.469698639151	26
0	4792	359.484221320173	25
0	4794	359.492849407622	26
0	4795	359.496859110106	25
0	4797	359.628925585521	24
0	4800	360.859093387703	25
0	4801	361.248274788118	24
0	4803	361.476618547774	23
0	4806	361.829851210029	22
0	4809	361.949114225293	23
0	4810	362.171279897249	24
0	4811	362.223374045482	23
0	4814	362.359456138401	22
0	4816	362.547762337153	21
0	4818	362.592507684205	22
0	4821	363.180677464206	23
0	4822	363.304240031305	22
0	4824	363.40895235417	23
0	4826	363.715994722209	22
0	4830	363.995726779884	23
0	4831	364.119434550511	24
0	4832	364.197996602119	23
0	4834	364.271116085345	24
0	4836	364.527822216156	23
0	4840	364.610689144714	24
0	4841	364.83774392165	25
0	4842	364.902232546356	26
0	4846	365.289577534987	27
0	4847	365.290929642275	28
0	4848	365.294790985748	27
0	4850	365.299594203905	26
0	4852	365.39912254796	27
0	4853	365.55155346901	26
0	4855	365.640530735025	25
0	4857	365.816473263489	24
0	4861	366.135146530723	23
0	4863	366.171306924385	24
0	4864	366.19040706972	25
0	4865	366.585152676296	24
0	4867	366.814276760437	23
0	4870	367.010348577591	22
0	4872	367.162349958322	21
0	4875	367.198349246933	22
0	4877	367.491040652211	23
0	4878	367.607878649872	24
0	4879	367.741637429865	23
0	4881	367.822594057997	22
0	4883	367.89970253695	21
0	4885	367.950155608019	20
0	4887	368.030003366604	19
0	4890	368.468938562116	18
0	4894	368.63394216003	19
0	4896	368.890059440344	20
0	4897	368.898214693732	21
0	4898	368.944498654491	22
0	4901	369.356415337859	23
0	4902	369.383732386193	22
0	4905	369.601738182928	23
0	4906	369.789875118247	22
0	4908	369.855508585086	23
0	4909	369.898406566324	22
0	4911	369.991922512476	21
0	4916	370.219682496724	20
0	4921	370.451559702686	21
0	4922	370.492756249052	22
0	4923	370.516518726004	23
0	4924	370.541720753051	24
0	4925	370.619428742062	23
0	4927	370.674841486162	24
0	4928	370.694085992729	25
0	4931	371.211752243243	24
0	4933	371.233467624265	25
0	4934	371.283717444721	26
0	4935	371.30163922727	25
0	4939	372.386162989722	26
0	4940	372.603584297078	27
0	4941	372.605115366502	26
0	4943	372.693658524914	25
0	4946	373.028768079147	26
0	4947	373.032156738606	25
0	4949	373.358746508066	24
0	4953	373.534296989001	23
0	4956	373.693684939227	24
0	4957	373.703872429536	25
0	4959	373.941468772195	26
0	4960	374.010006960799	25
0	4962	374.104362167608	26
0	4963	374.390978042269	25
0	4968	374.660861277704	24
0	4971	374.696333702912	25
0	4972	374.781478262673	26
0	4973	374.78910740317	27
0	4974	374.879586046446	26
0	4976	374.9785680558	27
0	4977	374.986212870472	26
0	4980	375.501919216024	27
0	4983	376.40949842143	26
0	4986	376.512707002786	27
0	4987	376.62350487315	28
0	4988	376.783763451392	27
0	4990	376.784432357725	28
0	4991	376.876585500618	27
0	4995	377.277941498857	28
0	4996	377.287886558823	27
0	4998	377.312732505592	26
0	5000	377.380854691014	25
0	5003	377.561227045668	26
0	5007	377.79891580636	27
0	5008	377.904766062137	28
0	5010	377.991204757313	29
0	5011	378.040210650041	30
0	5013	378.275385019236	31
0	5014	378.540072666389	32
0	5016	378.892349463213	31
0	5019	379.150850023288	32
0	5021	379.245088392241	33
0	5022	379.492369963736	32
0	5024	379.499390321172	33
0	5025	379.54400382013	32
0	5027	379.546854548602	31
0	5029	379.633369444356	30
0	5031	379.787529119331	29
0	5033	380.001686493782	28
0	5035	380.064602701222	27
0	5037	380.128194681891	26
0	5039	380.171633814692	25
0	5044	380.511699927118	26
0	5046	380.657472729942	27
0	5047	380.685130790611	28
0	5049	380.867520549293	29
0	5050	381.004506482648	30
0	5051	381.013007518692	29
0	5053	381.109919476664	28
0	5055	381.416106315697	27
0	5058	381.656441527666	26
0	5061	381.793528854559	27
0	5064	382.048590381159	28
0	5067	382.096055594525	29
0	5068	382.246986222559	30
0	5069	382.367593365654	31
0	5070	382.38676999018	32
0	5071	382.391023702529	31
0	5073	382.524033105798	30
0	5076	383.363080098464	29
0	5078	383.402347937224	30
0	5081	384.081040286781	31
0	5082	384.104143403199	30
0	5085	384.163246571848	31
0	5087	384.412728004967	32
0	5088	384.491907155221	31
0	5090	384.583203624892	32
0	5092	385.026573195224	33
0	5093	385.161655924265	32
0	5096	385.39834027844	31
0	5099	385.517235107425	32
0	5100	385.742289454218	31
0	5103	385.806923314133	32
0	5105	385.89808811568	31
0	5107	386.051673235773	30
0	5109	386.097328742425	31
0	5110	386.170151608279	30
0	5112	386.195730612385	31
0	5114	386.450730736758	30
0	5116	386.515651739888	31
0	5117	386.642171188072	30
0	5119	386.664332495673	29
0	5121	386.988796321789	28
0	5123	387.153569255156	27
0	5125	387.449343200797	26
0	5127	387.812441538746	25
0	5129	388.14939534982	24
0	5131	388.168664399816	23
0	5133	388.430499826503	22
0	5136	388.890589775055	23
0	5139	389.230519112852	24
0	5141	389.39945906319	25
0	5142	389.470329311744	24
0	5144	389.493155466508	23
0	5146	389.528084947565	22
0	5148	389.576678308392	23
0	5149	389.802901476094	22
0	5153	390.15347756177	21
0	5155	390.199216580382	22
0	5156	390.271194199668	23
0	5158	390.742159621088	22
0	5160	390.804915989258	23
0	5161	390.805384824293	22
0	5163	390.97896963791	21
0	5165	391.05961582953	20
0	5168	391.271527690926	19
0	5170	391.305791605856	18
0	5173	391.508211413956	19
0	5175	391.803916803616	20
0	5176	391.863313964082	21
0	5179	392.409311720092	22
0	5180	392.662089362905	23
0	5184	393.304318643902	24
0	5185	393.34919825879	25
0	5186	393.394339089519	26
0	5187	393.706748004854	25
0	5189	394.018447837706	24
0	5191	394.385168820406	23
0	5195	394.490448496725	22
0	5197	394.648074492775	21
0	5199	394.70267952081	22
0	5200	394.76708246415	23
0	5201	394.825715585298	22
0	5203	395.427890879256	21
0	5206	395.52904240127	20
0	5208	395.749861582717	21
0	5210	396.069625241585	22
0	5211	396.16509595092	21
0	5215	396.502878466065	22
0	5218	396.761973420053	23
0	5219	396.807153984156	24
0	5220	396.874884279231	25
0	5223	397.251348808114	24
0	5225	397.265192521156	23
0	5227	397.273475228266	22
0	5230	397.296843580308	23
0	5231	397.341245100096	22
0	5234	397.447358593462	23
0	5235	397.549849224194	22
0	5237	397.579514118521	23
0	5238	397.658448050873	24
0	5240	398.016434792188	23
0	5242	398.184444918946	24
0	5243	398.218492935476	23
0	5246	398.63056499119	22
0	5248	398.641394034819	21
0	5250	398.646188421729	22
0	5251	398.923876982179	21
0	5253	399.089782249674	20
0	5256	399.648736270794	19
0	5259	399.858282021771	20
0	5262	400.004830093443	21
0	5264	400.205366728266	22
0	5265	400.218403041387	23
0	5267	400.492044077322	24
0	5269	400.719902763982	23
0	5272	400.754733259836	24
0	5273	400.944815242555	23
0	5275	400.951780344442	24
0	5276	401.020163824411	25
0	5277	401.048666136082	24
0	5279	401.091660065795	23
0	5283	401.269391213022	22
0	5287	401.419070895286	23
0	5288	401.492353524958	24
0	5290	401.582408858064	25
0	5291	401.636148496516	26
0	5292	401.812474030679	27
0	5296	402.34244159799	26
0	5298	402.593610878603	27
0	5299	402.614759769967	28
0	5300	402.634047862717	29
0	5301	403.063879473764	28
0	5308	403.600992026057	27
0	5310	403.645090314381	28
0	5311	403.66088409867	29
0	5312	403.714171651244	30
0	5313	403.730317292009	29
0	5315	403.733044296538	30
0	5316	403.739035496386	29
0	5318	403.803690401354	30
0	5320	403.815084331556	29
0	5323	404.046700029658	28
0	5325	404.095161691451	27
0	5327	404.102022096785	26
0	5329	404.112124894194	27
0	5330	404.134531418897	26
0	5332	404.222727104402	27
0	5334	404.253847775926	26
0	5336	404.543623234534	27
0	5339	405.19976598177	26
0	5341	405.216996069868	27
0	5342	405.359796557963	28
0	5343	405.387683190852	27
0	5345	405.553649993278	26
0	5347	405.631644910212	25
0	5349	405.668644952468	24
0	5351	405.740965901351	23
0	5353	405.749254201058	22
0	5355	405.868114783348	21
0	5357	405.936414940256	20
0	5361	406.127280231358	19
0	5364	406.324024194709	20
0	5365	406.336097746944	21
0	5366	406.42567871484	20
0	5368	406.427138140118	19
0	5370	406.450031627525	20
0	5373	406.857555010094	19
0	5375	406.908404038549	18
0	5377	406.912391547154	19
0	5378	406.94417857255	18
0	5380	407.004186763889	17
0	5382	407.090937905723	18
0	5383	407.103124194627	17
0	5386	407.158434031427	16
0	5388	407.25824872872	15
0	5390	407.41161502282	16
0	5392	407.795221408177	15
0	5394	407.970534340152	16
0	5396	408.152621784675	15
0	5399	408.337710232777	16
0	5400	408.454909894806	15
0	5402	408.512333117864	14
0	5404	408.582131483966	15
0	5409	408.923281860504	16
0	5410	408.940471299765	17
0	5413	409.058984158819	18
0	5414	409.129116837528	19
0	5416	409.251476444143	20
0	5417	409.287475558893	21
0	5418	409.463903555606	22
0	5419	409.493181466679	21
0	5421	409.54048366558	20
0	5423	409.567101492918	19
0	5425	409.590164425243	18
0	5427	410.096592998516	17
0	5431	410.407427193405	18
0	5432	410.566382759768	19
0	5436	410.881086022754	20
0	5438	411.007637759171	21
0	5439	411.102474937712	22
0	5440	411.120998266377	21
0	5443	411.235212425523	22
0	5445	411.39914849008	21
0	5447	411.432915343735	22
0	5448	411.434833752748	21
0	5450	411.458396798028	20
0	5452	411.58936206968	19
0	5454	411.590050359918	20
0	5456	411.8598195512	19
0	5459	412.067579571522	18
0	5461	412.098013293689	19
0	5462	412.356298520584	20
0	5466	412.557329573889	19
0	5469	412.692148368914	18
0	5471	412.718274068978	19
0	5472	412.71990314451	20
0	5473	412.793821539374	21
0	5474	412.909852160749	22
0	5475	412.920846699378	21
0	5479	413.143033087064	20
0	5481	413.345383432593	21
0	5482	413.413097976788	22
0	5484	413.942939056983	21
0	5486	414.154867280276	22
0	5489	414.547610984673	23
0	5490	414.718448358906	24
0	5491	414.722496181129	23
0	5497	415.049790603234	22
0	5500	415.095906278807	23
0	5502	415.214997738135	24
0	5503	415.272322694917	25
0	5504	415.325584676852	26
0	5505	415.369929835293	27
0	5507	415.422312889415	28
0	5509	415.486401599291	27
0	5511	415.680578281847	28
0	5512	415.723683054449	29
0	5513	415.75794080669	28
0	5515	415.758291846799	27
0	5518	415.859418732552	26
0	5520	416.157576104313	27
0	5522	416.766464235138	26
0	5525	416.9988816555	27
0	5526	417.099316422436	28
0	5527	417.283920360893	27
0	5531	417.443630705799	26
0	5533	417.464038773854	25
0	5535	417.53277832024	24
0	5537	417.534561472693	23
0	5539	417.544672191369	22
0	5541	417.708347446211	23
0	5542	417.724082543375	24
0	5544	418.140690406265	23
0	5548	418.27875844462	24
0	5549	418.431680527921	23
0	5551	418.492194248023	24
0	5552	418.546664449485	25
0	5554	418.648447394663	24
0	5558	418.87388415623	25
0	5559	419.005763306855	26
0	5560	419.006392220375	25
0	5562	419.029064456321	26
0	5563	419.075066761167	25
0	5565	419.214834583718	24
0	5567	419.7967088906	23
0	5569	419.806014804074	22
0	5571	419.935710532202	21
0	5575	420.300587214829	20
0	5579	420.567423663069	21
0	5580	420.598830621635	22
0	5581	420.650227916386	23
0	5582	420.737075400047	24
0	5583	421.263982073893	23
0	5587	421.403377946279	22
0	5591	421.669467631899	23
0	5592	421.678184305217	24
0	5593	421.744477989623	23
0	5596	421.900007811491	24
0	5597	421.913370286253	25
0	5598	421.920145779776	24
0	5600	421.990609042869	23
0	5603	422.086303758162	24
0	5605	422.341562382605	25
0	5606	422.424598027613	26
0	5607	422.706048877821	25
0	5609	423.058247384477	24
0	5611	423.08255931242	23
0	5615	423.629797382378	24
0	5616	423.676193002457	23
0	5618	423.7322069539	24
0	5619	423.830562523341	23
0	5621	423.835626129145	22
0	5625	423.968183207414	21
0	5627	424.176957822843	22
0	5628	424.22536011584	23
0	5630	424.627907644954	24
0	5631	424.728906865317	23
0	5633	424.783430721347	22
0	5635	424.986138464104	21
0	5638	425.087310079047	20
0	5640	425.246162746893	19
0	5642	425.367034359029	20
0	5643	425.399069849119	19
0	5645	425.745446392358	18
0	5647	425.757580265477	17
0	5649	426.047094370825	16
0	5651	426.105053031296	15
0	5655	426.358450609961	14
0	5657	426.412694969987	15
0	5658	426.429965170838	16
0	5659	426.471129672757	15
0	5662	426.578820923069	14
0	5666	426.824558928259	15
0	5667	426.88208605979	16
0	5668	426.972901524329	15
0	5670	427.075855134503	16
0	5671	427.125008762873	15
0	5674	427.392874451879	14
0	5679	427.585734955889	15
0	5680	427.710032604465	16
0	5681	427.740594072153	17
0	5683	427.872572386963	18
0	5684	428.046381048916	17
0	5687	428.111857502474	16
0	5689	428.145613954679	17
0	5690	428.152346767503	16
0	5692	428.258271119447	15
0	5695	428.346568953335	14
0	5697	428.365404119374	13
0	5699	428.405663164992	14
0	5700	428.573522522535	15
0	5701	428.777543494208	14
0	5704	428.825427105126	13
0	5706	429.088819274388	14
0	5707	429.124493846928	13
0	5709	429.304445328807	12
0	5712	429.536538893692	11
0	5716	429.752011765615	10
0	5718	429.825539219242	11
0	5719	430.030777272477	12
0	5720	430.043296726047	13
0	5722	430.326928436714	12
0	5725	430.469815593507	13
0	5726	430.575675546375	12
0	5728	430.682418410039	13
0	5731	431.167675289268	14
0	5732	431.238295374301	13
0	5734	431.296635150754	12
0	5736	431.408390446868	13
0	5737	431.408420889484	12
0	5740	431.948369651497	11
0	5742	432.069521850464	12
0	5744	432.327650029698	11
0	5746	432.479101978092	12
0	5748	432.826793400241	11
0	5750	432.892738908533	12
0	5752	433.624237450951	11
0	5754	433.655142734674	10
0	5756	433.69210046946	11
0	5759	434.000245540444	12
0	5760	434.141016531479	13
0	5761	434.510829803122	12
0	5763	434.694947703939	11
0	5766	434.926752511068	10
0	5768	435.005582708152	11
0	5769	435.300328204184	10
0	5771	435.52978634018	9
0	5773	435.706319342622	8
0	5775	435.867725238291	7
0	5779	436.291882229902	8
0	5780	436.431641843994	7
0	5783	436.549959539225	8
0	5785	436.831166364341	7
0	5787	436.831753448114	8
0	5788	436.836316908979	7
0	5790	436.912004722372	6
0	5792	436.914396570368	5
0	5794	437.0243236074	6
0	5795	437.057174467689	5
0	5798	437.189080434978	4
0	5801	437.308520387369	3
0	5804	437.442165296117	4
0	5805	437.538982129202	5
0	5806	437.707945980678	6
0	5807	437.825450675353	5
0	5811	438.167510742268	6
0	5812	438.284558009986	7
0	5813	438.459595873667	6
0	5815	438.599150241311	5
0	5817	438.653373845858	4
0	5820	439.127728242258	5
0	5822	439.464797260264	4
0	5824	439.567942992441	5
0	5825	439.602610031389	4
0	5828	440.609986099229	3
0	5830	440.747756680372	2
0	5832	440.783279015814	3
0	5833	441.016786756798	2
0	5835	441.093404314885	1
0	5838	441.415321321346	2
0	5841	442.092979386923	1
0	5844	442.13586507336	2
0	5846	442.298632637076	3
0	5847	442.335590632643	2
0	5849	442.339652918788	1
0	5851	442.365251115577	0
0	5853	442.400249238306	1
0	5855	442.472717602016	2
0	5856	442.575855079199	1
0	5859	442.719347377777	2
0	5860	442.74191113941	1
0	5862	442.800076356281	0
0	5865	442.896046612515	1
0	5868	443.173375177519	2
0	5870	443.376456186419	3
0	5871	443.463594964643	4
0	5872	443.568959979327	3
0	5874	443.595611609094	4
0	5876	443.860130821069	3
0	5878	443.945014027665	4
0	5880	444.313579239299	3
0	5882	444.479084051312	4
0	5884	444.681890074239	3
0	5888	444.816502247243	4
0	5889	444.828308938332	3
0	5892	445.039985801308	4
0	5893	445.109097820918	5
0	5894	445.246726822764	4
0	5896	445.259780505425	5
0	5897	445.359366313973	4
0	5902	445.573749265365	3
0	5904	445.673101480805	4
0	5905	445.709507026337	5
0	5906	445.735284034075	6
0	5908	446.086072066082	7
0	5910	446.546902743116	6
0	5913	446.614194016793	5
0	5915	446.781660428034	6
0	5916	446.847886770916	7
0	5917	446.88097008087	6
0	5920	447.286295582768	5
0	5923	447.363140491582	6
0	5924	447.534345096455	5
0	5926	447.635979817312	4
0	5928	447.644681997081	5
0	5930	447.905782501659	4
0	5932	447.96883017123	5
0	5933	448.01348540582	4
0	5935	448.289800409338	3
0	5939	448.776831229642	4
0	5940	448.868408609172	3
0	5942	448.925810579156	2
0	5944	448.961439583482	3
0	5945	448.998953783987	2
0	5948	449.30961463457	3
0	5950	449.858476270077	4
0	5951	449.936105955378	3
0	5955	450.169567005886	2
0	5959	450.336129839864	3
0	5960	450.369079879522	4
0	5961	450.401828943257	3
0	5963	450.462146308756	2
0	5965	450.478368695824	3
0	5966	450.560185941164	4
0	5967	450.654755097114	3
0	5969	450.849705544611	2
0	5974	451.162560720043	3
0	5977	451.341876550888	4
0	5979	451.461119572249	5
0	5980	451.572006814422	6
0	5981	451.584338403526	7
0	5982	451.721642307953	8
0	5983	451.799983300346	7
0	5985	451.996767596487	6
0	5987	452.011989620654	5
0	5989	452.211410920032	4
0	5991	452.302795009343	3
0	5993	452.535904989752	2
0	5995	452.624401205874	1
0	5997	452.673777597167	0
0	6003	452.979239861894	1
0	6004	453.089357629139	2
0	6006	453.136252552333	3
0	6007	453.237153101699	4
0	6008	453.392737032984	5
0	6010	453.542306030827	4
0	6013	453.741707912457	5
0	6015	454.028264803206	6
0	6016	454.105894846258	7
0	6017	454.165441482599	6
0	6020	454.219084108441	5
0	6023	454.436617328229	4
0	6025	454.479536804496	5
0	6026	454.530019999157	6
0	6028	454.846687695108	5
0	6030	454.897033688946	4
0	6032	454.955796874415	5
0	6035	455.16852980793	4
0	6038	455.224639131334	3
0	6040	455.275300890416	2
0	6042	455.400789250608	3
0	6043	455.430367870695	4
0	6044	455.521339288557	5
0	6047	455.775457008952	4
0	6050	455.87547148697	3
0	6052	455.890795030461	2
0	6054	455.92813075039	3
0	6055	455.937928813181	4
0	6057	456.124746300131	5
0	6058	456.342088129153	6
0	6061	456.778460607637	5
0	6063	456.811787317378	6
0	6064	456.952034614021	5
0	6066	456.954922435191	6
0	6068	457.312800289397	5
0	6070	457.360017199916	6
0	6071	457.41311887838	5
0	6075	457.594216106374	4
0	6077	457.769864785119	5
0	6078	457.801827161682	4
0	6080	457.804944401462	5
0	6081	458.053060598334	4
0	6085	458.501641474843	5
0	6086	458.62582761782	6
0	6088	458.924471055308	5
0	6091	459.017429563408	4
0	6093	459.134169567672	5
0	6095	459.256355567811	6
0	6096	459.485787195084	7
0	6098	459.756366728341	6
0	6100	459.773731947713	5
0	6102	459.909200753654	6
0	6104	460.11580660956	5
0	6106	460.297270623458	6
0	6109	460.617187527901	7
0	6110	460.670133788996	8
0	6113	461.041876554214	7
0	6115	461.042812492329	6
0	6119	461.220755788025	7
0	6120	461.260234110645	8
0	6121	461.440507410853	9
0	6122	461.454042002109	10
0	6127	461.780359603788	9
0	6129	461.923101525195	8
0	6131	461.930696957966	7
[...]
4	45608	3417.226362414933	11398
4	45610	3417.304255151801	11399
4	45614	3417.519510140126	11400
4	45616	3417.673692445084	11401
4	45618	3418.0415790874	11402
4	45622	3418.320794207182	11403
4	45624	3418.387491479949	11404
4	45630	3418.632238383992	11405
4	45639	3419.030027865737	11406
4	45641	3419.035630541205	11407
4	45646	3419.422456929713	11408
4	45649	3419.541426627618	11409
4	45651	3419.645713113468	11410
4	45654	3419.799673897686	11411
4	45660	3420.250104291019	11412
4	45662	3420.464723536359	11413
4	45664	3420.992933613686	11414
4	45668	3421.089751615934	11415
4	45675	3421.679833749041	11416
4	45678	3421.84912262361	11417
4	45681	3422.016778931048	11418
4	45684	3422.105716964122	11419
4	45686	3422.155816005666	11420
4	45691	3422.828368174295	11421
4	45696	3423.035276058147	11422
4	45702	3423.367775339528	11423
4	45707	3423.771454752577	11424
4	45712	3424.353781722101	11425
4	45714	3424.572551454752	11426
4	45716	3425.017680707656	11427
4	45718	3425.285059190386	11428
4	45720	3425.320915820385	11429
4	45722	3425.324595325396	11430
4	45724	3425.568027531	11431
4	45733	3427.382876968928	11432
4	45735	3427.397705991724	11433
4	45738	3427.549156303794	11434
4	45740	3428.207106946055	11435
4	45744	3429.837167250354	11436
4	45753	3430.436641894675	11437
4	45763	3431.23988719652	11438
4	45766	3431.422620338047	11439
4	45770	3431.910154476085	11440
4	45773	3432.125289781077	11441
4	45777	3432.284745670727	11442
4	45780	3432.610745342916	11443
4	45784	3432.928171912514	11444
4	45787	3433.088957123913	11445
4	45793	3433.573435955947	11446
4	45799	3433.7073786895	11447
4	45802	3433.799324071103	11448
4	45810	3434.815998059612	11449
4	45812	3435.112022419565	11450
4	45814	3435.165851834576	11451
4	45816	3435.205370011442	11452
4	45818	3435.216898549138	11453
4	45822	3435.781576216497	11454
4	45824	3436.196976762601	11455
4	45826	3436.197686943502	11456
4	45828	3436.30949463944	11457
4	45833	3437.106939496403	11458
4	45836	3437.444123107937	11459
4	45843	3438.252751549151	11460
4	45845	3438.260278785346	11461
4	45850	3438.589506116668	11462
4	45853	3438.660419172955	11463
4	45856	3438.881662743358	11464
4	45869	3440.003192653316	11465
4	45872	3440.093773964864	11466
4	45875	3440.488248733018	11467
4	45878	3440.860555175084	11468
4	45880	3440.871624536547	11469
4	45882	3441.017361893108	11470
4	45887	3441.647406264853	11471
4	45890	3441.664565319479	11472
4	45894	3441.829229992891	11473
4	45898	3442.07232432519	11474
4	45901	3442.188612133969	11475
4	45906	3442.604712804971	11476
4	45910	3442.721472205714	11477
4	45912	3442.860223014183	11478
4	45921	3443.427093450741	11479
4	45924	3443.451521000275	11480
4	45926	3443.507178572914	11481
4	45929	3443.519760505634	11482
4	45933	3444.14893629403	11483
4	45938	3445.548674762593	11484
4	45940	3445.701655893936	11485
4	45945	3446.32358510488	11486
4	45948	3446.62548142114	11487
4	45957	3447.438520009113	11488
4	45961	3447.559234429068	11489
4	45970	3448.159970128941	11490
4	45972	3448.160673756542	11491
4	45977	3448.312799691582	11492
4	45981	3448.46212776901	11493
4	45988	3448.842515343439	11494
4	45990	3448.978410822531	11495
4	45992	3449.008619368631	11496
4	45998	3450.112338419529	11497
4	46000	3450.361150182644	11498
4	46004	3451.199769954578	11499
4	46008	3451.451217014549	11500
4	46015	3452.443273859084	11501
4	46020	3452.642948297548	11502
4	46022	3452.652532543742	11503
4	46027	3452.95068915679	11504
4	46032	3453.407810581483	11505
4	46038	3454.032285683162	11506
4	46041	3454.26731254215	11507
4	46044	3454.354684593285	11508
4	46046	3454.363169509321	11509
4	46052	3454.937623184599	11510
4	46056	3455.076873753256	11511
4	46058	3455.812243488736	11512
4	46060	3456.10854272543	11513
4	46062	3456.63393553672	11514
4	46064	3456.789975904898	11515
4	46071	3457.496348712232	11516
4	46073	3457.550822945876	11517
4	46077	3457.807833358277	11518
4	46083	3458.091941483536	11519
4	46085	3458.144406610607	11520
4	46089	3458.260494018455	11521
4	46098	3458.820840964604	11522
4	46101	3458.975667673973	11523
4	46104	3459.12801642119	11524
4	46109	3459.41926090147	11525
4	46112	3459.484477396499	11526
4	46114	3459.662553748422	11527
4	46126	3460.845053188857	11528
4	46131	3461.271419049328	11529
4	46136	3461.459757716022	11530
4	46139	3461.52097899932	11531
4	46144	3461.946825372899	11532
4	46147	3462.080222582785	11533
4	46152	3462.611850878938	11534
4	46155	3463.135339720224	11535
4	46161	3463.553527680833	11536
4	46167	3463.726961121074	11537
4	46169	3463.738548380431	11538
4	46171	3463.767985507242	11539
4	46174	3464.005545100695	11540
4	46176	3464.438028933083	11541
4	46178	3464.656836959466	11542
4	46181	3464.778827116558	11543
4	46184	3464.970565819875	11544
4	46189	3465.323776557926	11545
4	46191	3465.39835466869	11546
4	46196	3465.617271305039	11547
4	46200	3465.963168587302	11548
4	46205	3466.434323391563	11549
4	46209	3466.682075228856	11550
4	46213	3466.872768048664	11551
4	46218	3467.29141645906	11552
4	46220	3467.36285012394	11553
4	46224	3467.709796981665	11554
4	46226	3467.711980198968	11555
4	46228	3467.957892431775	11556
4	46230	3467.964044641164	11557
4	46237	3468.581203340248	11558
4	46247	3469.59619581647	11559
4	46249	3469.717888956	11560
4	46253	3469.879793268261	11561
4	46256	3470.381378090718	11562
4	46258	3470.395750543402	11563
4	46261	3470.584780087746	11564
4	46263	3470.713329478965	11565
4	46267	3470.82848458696	11566
4	46272	3471.038686509701	11567
4	46275	3471.166035310203	11568
4	46278	3471.309145047629	11569
4	46280	3471.987201461776	11570
4	46289	3473.261928310299	11571
4	46291	3473.341052651168	11572
4	46294	3473.785248183182	11573
4	46296	3473.814112255418	11574
4	46302	3474.326522612267	11575
4	46308	3474.630963059792	11576
4	46310	3474.672451153654	11577
4	46318	3475.030653406237	11578
4	46323	3475.138327810978	11579
4	46329	3475.84910858582	11580
4	46333	3476.039948437755	11581
4	46336	3476.119508947991	11582
4	46338	3476.136193581516	11583
4	46341	3476.291608029639	11584
4	46344	3477.013642572996	11585
4	46347	3477.171548836137	11586
4	46349	3477.292885774811	11587
4	46353	3477.564735231255	11588
4	46358	3477.858548233666	11589
4	46364	3478.318621314357	11590
4	46370	3478.860262805337	11591
4	46382	3479.430331347514	11592
4	46384	3479.445370679663	11593
4	46386	3479.500602737716	11594
4	46390	3479.625459789047	11595
4	46392	3479.650330676899	11596
4	46396	3479.881960649149	11597
4	46399	3480.082962013444	11598
4	46401	3480.132525777754	11599
4	46403	3480.193759036957	11600
4	46405	3480.280475198563	11601
4	46412	3480.662269766333	11602
4	46422	3481.154525136127	11603
4	46424	3481.348794586262	11604
4	46429	3481.934814649331	11605
4	46431	3481.999362894599	11606
4	46437	3482.512931714621	11607
4	46439	3482.668435739824	11608
4	46445	3483.094130331977	11609
4	46448	3483.207537389413	11610
4	46454	3483.746617540844	11611
4	46458	3483.874334513395	11612
4	46463	3484.148071369425	11613
4	46465	3484.227840518245	11614
4	46468	3484.416123330342	11615
4	46475	3485.508707616512	11616
4	46478	3485.611797526953	11617
4	46485	3485.93979078941	11618
4	46490	3486.229590955445	11619
4	46492	3486.275608983551	11620
4	46494	3486.287474054447	11621
4	46496	3486.554300472709	11622
4	46498	3486.668783372905	11623
4	46503	3487.347139548862	11624
4	46508	3487.913563700733	11625
4	46510	3487.988509331722	11626
4	46513	3488.128149885433	11627
4	46518	3488.447660932418	11628
4	46521	3488.535695642829	11629
4	46524	3488.656045511347	11630
4	46526	3488.705015361398	11631
4	46528	3489.150543897098	11632
4	46533	3490.194690693615	11633
4	46537	3490.803755572341	11634
4	46548	3492.162513527502	11635
4	46556	3492.463333644595	11636
4	46562	3492.711058291388	11637
4	46565	3492.940822964438	11638
4	46570	3493.090231928757	11639
4	46576	3493.314560191367	11640
4	46580	3493.371415713914	11641
4	46589	3493.759104889288	11642
4	46593	3493.943372625575	11643
4	46596	3494.130471075274	11644
4	46599	3494.149157317467	11645
4	46601	3494.164300022574	11646
4	46603	3494.192329323578	11647
4	46606	3494.274623319385	11648
4	46608	3494.323267273313	11649
4	46613	3494.761391634679	11650
4	46616	3494.861749191116	11651
4	46618	3494.922576133139	11652
4	46631	3496.059123997998	11653
4	46633	3496.074581147333	11654
4	46636	3496.160038417104	11655
4	46640	3496.329452775729	11656
4	46642	3496.360210884243	11657
4	46646	3496.885376488137	11658
4	46648	3497.076073049698	11659
4	46650	3497.179878036663	11660
4	46652	3497.217096521966	11661
4	46655	3497.51628621364	11662
4	46661	3497.855111213559	11663
4	46676	3498.640633392762	11664
4	46682	3499.100124838972	11665
4	46685	3499.233420738021	11666
4	46687	3499.247446426709	11667
4	46691	3499.399421534481	11668
4	46697	3499.90018049884	11669
4	46700	3500.204773158772	11670
4	46703	3500.549820783077	11671
4	46707	3501.238475722954	11672
4	46709	3501.338697454218	11673
4	46711	3501.389092462339	11674
4	46714	3501.654302108027	11675
4	46717	3501.739308944701	11676
4	46719	3501.873097109635	11677
4	46729	3502.716136017731	11678
4	46731	3502.778301826699	11679
4	46736	3502.885477760942	11680
4	46738	3503.044189003388	11681
4	46743	3503.195207795322	11682
4	46745	3503.210701785685	11683
4	46755	3504.096815362287	11684
4	46757	3504.171681785322	11685
4	46761	3504.266244675232	11686
4	46763	3504.330510206365	11687
4	46766	3504.499130105342	11688
4	46770	3504.892252101919	11689
4	46778	3505.528985153507	11690
4	46782	3505.728771490786	11691
4	46785	3505.744563467994	11692
4	46790	3506.166845981441	11693
4	46792	3506.209621156976	11694
4	46797	3506.603417886799	11695
4	46800	3506.861953892087	11696
4	46804	3507.181088175953	11697
4	46808	3507.943389765666	11698
4	46810	3507.999468188158	11699
4	46812	3508.39180911602	11700
4	46814	3508.392298003248	11701
4	46817	3508.814038932327	11702
4	46819	3508.982307841786	11703
4	46823	3509.248178376287	11704
4	46828	3509.543618662718	11705
4	46830	3509.62551347183	11706
4	46838	3510.657577288461	11707
4	46840	3510.685039391419	11708
4	46842	3510.807511602099	11709
4	46845	3510.974757038049	11710
4	46848	3511.147333284721	11711
4	46851	3511.306522023763	11712
4	46855	3511.49943824433	11713
4	46859	3512.033713342336	11714
4	46861	3512.083655520459	11715
4	46864	3512.331058862534	11716
4	46870	3513.840420280088	11717
4	46872	3513.862424024751	11718
4	46876	3514.760619821208	11719
4	46882	3516.010311285879	11720
4	46885	3516.379891811629	11721
4	46897	3517.431927872421	11722
4	46901	3517.520987659816	11723
4	46912	3518.208920688398	11724
4	46914	3518.258867911763	11725
4	46917	3518.730399367056	11726
4	46920	3518.808256906854	11727
4	46923	3519.35509006561	11728
4	46928	3520.019174030014	11729
4	46931	3520.290666371907	11730
4	46937	3520.985138009037	11731
4	46941	3521.166558542241	11732
4	46943	3521.228243429667	11733
4	46949	3521.553175444914	11734
4	46954	3521.703375483637	11735
4	46973	3523.245966290767	11736
4	46977	3523.466900509451	11737
4	46980	3523.694883442239	11738
4	46982	3523.724009095188	11739
4	46984	3523.848524398122	11740
4	46986	3523.929033019736	11741
4	46989	3524.345882047544	11742
4	46992	3524.580161595213	11743
4	46995	3525.056214346353	11744
4	47009	3525.755964747554	11745
4	47015	3526.063202405629	11746
4	47025	3526.687058689105	11747
4	47036	3527.06977069275	11748
4	47039	3527.091322609309	11749
4	47045	3527.412704848842	11750
4	47049	3527.562334711048	11751
4	47051	3527.615911912727	11752
4	47053	3527.730346159719	11753
4	47056	3527.775572106814	11754
4	47061	3528.361200155464	11755
4	47063	3528.364559345534	11756
4	47066	3528.388380961628	11757
4	47070	3528.757199098446	11758
4	47074	3528.975450601532	11759
4	47076	3529.010969380276	11760
4	47081	3529.713168492705	11761
4	47084	3529.884306871704	11762
4	47086	3530.352609807442	11763
4	47094	3531.03715122824	11764
4	47099	3531.300470187594	11765
4	47103	3531.599864938245	11766
4	47105	3531.696004978458	11767
4	47108	3531.803558787311	11768
4	47110	3531.81939459688	11769
4	47112	3531.821663906845	11770
4	47115	3531.980191794204	11771
4	47120	3532.598968998796	11772
4	47122	3532.6252238107	11773
4	47124	3532.625814399828	11774
4	47127	3532.966967011808	11775
4	47130	3533.386174689778	11776
4	47132	3533.413460189014	11777
4	47139	3534.307466006028	11778
4	47142	3534.52359442948	11779
4	47146	3534.657153386736	11780
4	47149	3534.818821580527	11781
4	47152	3534.979977074809	11782
4	47155	3535.211948328676	11783
4	47159	3535.492603131335	11784
4	47165	3535.724397863543	11785
4	47167	3535.829504177724	11786
4	47171	3535.934330826344	11787
4	47174	3536.238253325697	11788
4	47176	3536.372040663308	11789
4	47178	3536.464239527907	11790
4	47181	3536.582487531464	11791
4	47184	3537.258618293673	11792
4	47188	3537.37948552078	11793
4	47193	3537.637997773016	11794
4	47196	3537.703364850579	11795
4	47201	3537.982190499525	11796
4	47204	3538.29068477175	11797
4	47207	3538.677679164795	11798
4	47210	3538.739442253252	11799
4	47215	3539.191828656975	11800
4	47219	3539.584443413221	11801
4	47223	3539.822191521182	11802
4	47225	3539.984333285102	11803
4	47229	3540.157363074316	11804
4	47231	3540.19722091021	11805
4	47235	3540.417650856916	11806
4	47238	3540.453636883518	11807
4	47241	3540.628209019075	11808
4	47244	3540.636083485589	11809
4	47249	3540.92235497023	11810
4	47252	3541.018338777662	11811
4	47255	3541.233319438924	11812
4	47258	3541.279739658217	11813
4	47264	3541.900507277955	11814
4	47266	3542.003163683501	11815
4	47269	3542.113498782679	11816
4	47273	3542.230443853082	11817
4	47276	3542.287967299326	11818
4	47280	3542.430796915614	11819
4	47282	3542.522280535639	11820
4	47287	3542.683673159745	11821
4	47290	3543.311192728879	11822
4	47292	3543.579760907865	11823
4	47300	3544.470662870894	11824
4	47303	3544.487936896432	11825
4	47305	3544.499339984944	11826
4	47309	3544.845064354304	11827
4	47313	3545.279778055708	11828
4	47316	3545.732946163687	11829
4	47324	3546.370015508956	11830
4	47331	3546.733817183155	11831
4	47334	3546.814206510746	11832
4	47338	3547.078540155966	11833
4	47340	3547.1615838237	11834
4	47345	3547.412575923979	11835
4	47347	3547.455383805845	11836
4	47351	3547.919403391591	11837
4	47354	3547.990926214317	11838
4	47367	3548.574418521102	11839
4	47373	3548.752305041716	11840
4	47382	3549.184574886077	11841
4	47385	3549.314029873936	11842
4	47387	3549.483677250437	11843
4	47391	3549.772155006018	11844
4	47395	3549.90510248112	11845
4	47397	3549.986128967973	11846
4	47402	3550.204537718184	11847
4	47408	3550.439560845356	11848
4	47410	3550.493915987766	11849
4	47424	3551.232137498453	11850
4	47427	3551.346231327447	11851
4	47429	3551.407701260599	11852
4	47431	3551.43875475023	11853
4	47437	3551.936903469147	11854
4	47440	3552.24348698684	11855
4	47442	3552.249488837149	11856
4	47447	3552.672238452016	11857
4	47449	3552.724271493079	11858
4	47454	3553.229578661349	11859
4	47456	3553.261347816826	11860
4	47458	3553.390947219278	11861
4	47468	3554.963639778464	11862
4	47470	3555.037853947258	11863
4	47473	3555.452344431492	11864
4	47476	3555.898310065695	11865
4	47479	3556.110010072058	11866
4	47481	3556.156211568174	11867
4	47484	3556.414598890588	11868
4	47487	3556.662234954709	11869
4	47492	3556.872047862551	11870
4	47497	3557.522475763776	11871
4	47512	3558.514693934366	11872
4	47515	3558.553274725017	11873
4	47517	3558.563569461194	11874
4	47524	3558.923551161447	11875
4	47527	3559.134079140911	11876
4	47532	3559.843201850044	11877
4	47535	3560.061567901419	11878
4	47537	3560.078396025265	11879
4	47539	3560.287189057735	11880
4	47545	3560.903000668869	11881
4	47550	3561.005513797328	11882
4	47552	3561.032715479106	11883
4	47555	3561.153606420914	11884
4	47564	3561.856129526915	11885
4	47566	3562.156223872681	11886
4	47568	3562.359344706725	11887
4	47570	3562.480309104115	11888
4	47572	3562.523308016225	11889
4	47574	3562.598847930323	11890
4	47576	3562.624716208711	11891
4	47587	3563.53711103817	11892
4	47589	3563.574545631427	11893
4	47591	3563.669231012009	11894
4	47597	3563.897632687342	11895
4	47599	3563.989236997894	11896
4	47603	3564.007577439301	11897
4	47608	3564.189215494401	11898
4	47611	3564.353726694198	11899
4	47616	3564.499608289858	11900
4	47621	3564.921663640111	11901
4	47623	3564.993478839742	11902
4	47625	3565.025052154121	11903
4	47629	3565.61927963459	11904
4	47631	3565.704192801519	11905
4	47634	3565.9730697457	11906
4	47636	3566.276979818252	11907
4	47638	3566.50888111818	11908
4	47646	3567.402568451127	11909
4	47648	3567.412277755778	11910
4	47650	3567.491633522076	11911
4	47653	3567.725218387603	11912
4	47655	3567.945301515378	11913
4	47671	3568.947021966619	11914
4	47673	3569.059230736213	11915
4	47679	3569.480660002762	11916
4	47689	3570.342950724921	11917
4	47691	3570.343427911801	11918
4	47693	3570.347415671017	11919
4	47698	3570.649566699292	11920
4	47702	3570.816567309527	11921
4	47704	3570.85520293225	11922
4	47706	3571.023970916868	11923
4	47709	3571.419150553346	11924
4	47712	3571.642505489973	11925
4	47715	3571.709853428834	11926
4	47718	3571.91709620247	11927
4	47725	3572.348318358381	11928
4	47728	3572.490134633926	11929
4	47730	3572.531824634185	11930
4	47732	3572.626309813721	11931
4	47738	3573.157116747355	11932
4	47744	3573.678996479605	11933
4	47748	3574.08710284636	11934
4	47751	3574.331021596814	11935
4	47755	3574.67823157435	11936
4	47760	3574.946834556488	11937
4	47768	3575.509071384695	11938
4	47770	3575.851747021934	11939
4	47772	3575.905481459234	11940
4	47774	3576.128706059209	11941
4	47777	3576.224267860093	11942
4	47779	3576.344567225288	11943
4	47783	3576.507627904716	11944
4	47788	3576.861119818598	11945
4	47792	3576.901220398461	11946
4	47796	3577.045224549225	11947
4	47808	3577.948690196058	11948
4	47814	3578.478899044627	11949
4	47817	3578.722642158532	11950
4	47820	3578.914832188255	11951
4	47823	3579.042143960895	11952
4	47827	3579.581088792838	11953
4	47829	3579.64403339629	11954
4	47836	3580.369733247471	11955
4	47838	3580.464634461669	11956
4	47844	3580.816790341089	11957
4	47846	3581.04214800256	11958
4	47848	3581.069440952308	11959
4	47851	3581.139120778156	11960
4	47853	3581.203472051238	11961
4	47857	3581.63686511056	11962
4	47860	3581.724295100767	11963
4	47862	3582.179014998579	11964
4	47864	3582.679404666314	11965
4	47866	3582.824144903135	11966
4	47869	3582.83496019389	11967
4	47873	3583.23846589008	11968
4	47876	3583.421699778394	11969
4	47883	3583.928583744167	11970
4	47888	3584.509804265982	11971
4	47890	3584.515918990525	11972
4	47893	3584.769203760349	11973
4	47902	3585.363596380587	11974
4	47904	3585.370146213012	11975
4	47909	3586.048030257985	11976
4	47912	3586.200335490259	11977
4	47914	3586.401475424619	11978
4	47917	3586.721147769037	11979
4	47920	3587.180275280019	11980
4	47930	3589.506027367139	11981
4	47941	3590.069782977829	11982
4	47944	3590.405230574212	11983
4	47947	3590.695526072151	11984
4	47956	3591.625895238145	11985
4	47958	3591.677820620407	11986
4	47960	3591.739697035811	11987
4	47963	3592.005652686211	11988
4	47966	3592.152045605901	11989
4	47968	3592.186922329237	11990
4	47971	3592.287196668345	11991
4	47973	3592.349746802326	11992
4	47975	3592.366737381177	11993
4	47983	3592.808264034803	11994
4	47985	3592.814308375087	11995
4	47989	3592.918170113212	11996
4	47995	3593.381646869837	11997
4	47998	3593.542498493248	11998
4	48002	3593.641931828575	11999
4	48008	3594.041054822602	12000
4	48011	3594.145242173173	12001
4	48014	3594.2862526054	12002
4	48017	3594.822598461172	12003
4	48020	3594.860827749902	12004
4	48022	3595.096867833057	12005
4	48024	3595.362589383878	12006
4	48030	3595.837112263616	12007
4	48032	3595.867809913964	12008
4	48039	3596.601350090355	12009
4	48041	3596.602945358274	12010
4	48051	3597.325445856053	12011
4	48054	3597.840015341059	12012
4	48065	3598.407518383934	12013
4	48069	3598.46882502504	12014
4	48073	3598.657279561315	12015
4	48077	3598.861611297553	12016
4	48080	3599.090331835602	12017
4	48083	3599.276494379277	12018
4	48085	3599.327366727359	12019
4	48087	3599.40850254382	12020
4	48089	3599.507346076831	12021
4	48092	3599.606102631016	12022
4	48095	3599.798601434259	12023
4	48098	3599.983697283477	12024

