version 2
run Net2-0-20190224-12:26:48-7941
attr configname Net2
attr datetime 20190224-12:26:48
attr experiment Net2
attr inifile omnetpp.ini
attr iterationvars ""
attr iterationvarsf ""
attr measurement ""
attr network Net
attr processid 7941
attr repetition 0
attr replication #0
attr resultdir results
attr runnumber 0
attr seedset 0
param **.gen.numPrio 5
param **.queue.numPrio 5
param **.queue.preemptive true
param **.queue.resume false
param **.gen.interArrivalTimes "\"0.20 0.25 0.30 0.35 0.40\""
param **.queue.serviceTimes "\"0.20 0.25 0.30 0.35 0.40\""

vector 0 Net.queue qlen:vector ETV
attr interpolationmode sample-hold
attr title "queue length, vector"
0	0	0	0
vector 1 Net.queue queueingTime:vector ETV
attr interpolationmode none
attr title "queueing time at dequeue, vector"
attr unit s
1	4	0.3	0
0	5	0.489951920031	1
0	6	0.500041762007	2
vector 2 Net.queue responseTime:vector ETV
attr interpolationmode none
attr title "response time at end of service, vector"
attr unit s
0	10	0.678216623121	1
1	10	0.678216623121	0.178174861114
2	10	0.678216623121	0.18826470309
vector 3 Net.sink lifetime:vector ETV
attr interpolationmode none
attr title "lifetime of arrived msg, vector"
attr unit s
vector 4 Net.sink arrivedMsg:vector ETV
attr interpolationmode none
attr title "number of arrived msg, vector"
3	11	0.678216623121	0.48826470309
4	11	0.678216623121	1
0	12	0.804521281287	2
0	13	0.824705856637	3
0	14	0.878071847476	2
1	14	0.878071847476	0.378030085469
2	14	0.878071847476	0.073550566189
3	15	0.878071847476	0.373550566189
4	15	0.878071847476	2
0	16	0.890340569163	3
0	19	1.107297208979	2
1	19	1.107297208979	0.607255446972
2	19	1.107297208979	0.216956639816
3	20	1.107297208979	0.516956639816
4	20	1.107297208979	3
0	21	1.228479588149	3
0	22	1.297744633254	4
0	23	1.411103394688	3
1	23	1.411103394688	0.911061632681
2	23	1.411103394688	0.182623806539
3	24	1.411103394688	0.482623806539
4	24	1.411103394688	4
0	25	1.474079605348	2
1	25	1.474079605348	0.176334972094
2	25	1.474079605348	0.974037843341
3	26	1.474079605348	1.274037843341
4	26	1.474079605348	5
0	27	1.649411479534	1
1	27	1.649411479534	1.349411479534
2	27	1.649411479534	0.35166684628
3	28	1.649411479534	0.65166684628
4	28	1.649411479534	6
0	31	2.092872805764	2
0	33	2.186758364799	1
1	33	2.186758364799	1.362052508162
2	33	2.186758364799	1.886758364799
3	34	2.186758364799	2.186758364799
4	34	2.186758364799	7
0	36	2.37868941136	2
0	37	2.410858594703	3
0	38	2.629166111702	4
0	39	2.703785947586	3
1	39	2.703785947586	0.292927352883
2	39	2.703785947586	0.325096536226
3	40	2.703785947586	0.625096536226
4	40	2.703785947586	8

