file 2616 1551030402                                            
version 2
run Net2-0-20190224-12:26:48-7941
attr configname Net2
attr datetime 20190224-12:26:48
attr experiment Net2
attr inifile omnetpp.ini
attr iterationvars ""
attr iterationvarsf ""
attr measurement ""
attr network Net
attr processid 7941
attr repetition 0
attr replication #0
attr resultdir results
attr runnumber 0
attr seedset 0
param **.gen.numPrio 5
param **.queue.numPrio 5
param **.queue.preemptive true
param **.queue.resume false
param **.gen.interArrivalTimes "\"0.20 0.25 0.30 0.35 0.40\""
param **.queue.serviceTimes "\"0.20 0.25 0.30 0.35 0.40\""

vector 0 Net.queue qlen:vector ETV
attr interpolationmode sample-hold
attr title "queue length, vector"
0	996 22 10 10 0.678216623121 0.678216623121 1 1 1 1 1
0	1377 66 12 14 0.804521281287 0.878071847476 3 2 3 7 17
0	1570 44 16 19 0.890340569163 1.107297208979 2 2 3 5 13
0	1741 66 21 23 1.228479588149 1.411103394688 3 3 4 10 34
0	1934 22 25 25 1.474079605348 1.474079605348 1 2 2 2 4
0	2083 22 27 27 1.649411479534 1.649411479534 1 1 1 1 1
0	2230 44 31 33 2.092872805764 2.186758364799 2 1 2 3 5
0	2401 87 36 39 2.37868941136 2.703785947586 4 2 4 12 38
vector 1 Net.queue queueingTime:vector ETV
attr interpolationmode none
attr title "queueing time at dequeue, vector"
attr unit s
1	808 10 4 4 0.3 0.3 1 0 0 0 0
1	1018 35 10 10 0.678216623121 0.678216623121 1 0.178174861114 0.178174861114 0.178174861114 0.031746281132993
1	1443 35 14 14 0.878071847476 0.878071847476 1 0.378030085469 0.378030085469 0.378030085469 0.1429067455197
1	1614 35 19 19 1.107297208979 1.107297208979 1 0.607255446972 0.607255446972 0.607255446972 0.36875917787716
1	1807 35 23 23 1.411103394688 1.411103394688 1 0.911061632681 0.911061632681 0.911061632681 0.83003329854337
1	1956 35 25 25 1.474079605348 1.474079605348 1 0.176334972094 0.176334972094 0.176334972094 0.031094022383392
1	2105 35 27 27 1.649411479534 1.649411479534 1 1.349411479534 1.349411479534 1.349411479534 1.8209113410981
1	2274 35 33 33 2.186758364799 2.186758364799 1 1.362052508162 1.362052508162 1.362052508162 1.8551870349904
1	2488 35 39 39 2.703785947586 2.703785947586 1 0.292927352883 0.292927352883 0.292927352883 0.085806434067042
vector 2 Net.queue responseTime:vector ETV
attr interpolationmode none
attr title "response time at end of service, vector"
attr unit s
2	1478 35 14 14 0.878071847476 0.878071847476 1 0.073550566189 0.073550566189 0.073550566189 0.0054096857867225
2	1649 35 19 19 1.107297208979 1.107297208979 1 0.216956639816 0.216956639816 0.216956639816 0.04707018356025
2	1842 35 23 23 1.411103394688 1.411103394688 1 0.182623806539 0.182623806539 0.182623806539 0.033351454714794
2	1991 35 25 25 1.474079605348 1.474079605348 1 0.974037843341 0.974037843341 0.974037843341 0.94874972026039
2	2140 34 27 27 1.649411479534 1.649411479534 1 0.35166684628 0.35166684628 0.35166684628 0.12366957077252
2	2309 35 33 33 2.186758364799 2.186758364799 1 1.886758364799 1.886758364799 1.886758364799 3.559857127139
2	2523 35 39 39 2.703785947586 2.703785947586 1 0.325096536226 0.325096536226 0.325096536226 0.10568775786614
vector 3 Net.sink lifetime:vector ETV
attr interpolationmode none
attr title "lifetime of arrived msg, vector"
attr unit s
3	1321 34 11 11 0.678216623121 0.678216623121 1 0.48826470309 0.48826470309 0.48826470309 0.23840242028357
3	1513 35 15 15 0.878071847476 0.878071847476 1 0.373550566189 0.373550566189 0.373550566189 0.13954002550012
3	1684 35 20 20 1.107297208979 1.107297208979 1 0.516956639816 0.516956639816 0.516956639816 0.26724416744985
3	1877 35 24 24 1.411103394688 1.411103394688 1 0.482623806539 0.482623806539 0.482623806539 0.23292573863819
3	2026 35 26 26 1.474079605348 1.474079605348 1 1.274037843341 1.274037843341 1.274037843341 1.623172426265
3	2174 34 28 28 1.649411479534 1.649411479534 1 0.65166684628 0.65166684628 0.65166684628 0.42466967854052
3	2344 35 34 34 2.186758364799 2.186758364799 1 2.186758364799 2.186758364799 2.186758364799 4.7819121460184
3	2558 35 40 40 2.703785947586 2.703785947586 1 0.625096536226 0.625096536226 0.625096536226 0.39074567960174
vector 4 Net.sink arrivedMsg:vector ETV
attr interpolationmode none
attr title "number of arrived msg, vector"
4	1355 22 11 11 0.678216623121 0.678216623121 1 1 1 1 1
4	1548 22 15 15 0.878071847476 0.878071847476 1 2 2 2 4
4	1719 22 20 20 1.107297208979 1.107297208979 1 3 3 3 9
4	1912 22 24 24 1.411103394688 1.411103394688 1 4 4 4 16
4	2061 22 26 26 1.474079605348 1.474079605348 1 5 5 5 25
4	2208 22 28 28 1.649411479534 1.649411479534 1 6 6 6 36
4	2379 22 34 34 2.186758364799 2.186758364799 1 7 7 7 49
4	2593 23 40 40 2.703785947586 2.703785947586 1 8 8 8 64
