file 2616 1551007737                                            
version 2
run Net2-0-20190224-12:26:48-7941
attr configname Net2
attr datetime 20190224-12:26:48
attr experiment Net2
attr inifile omnetpp.ini
attr iterationvars ""
attr iterationvarsf ""
attr measurement ""
attr network Net
attr processid 7941
attr repetition 0
attr replication #0
attr resultdir results
attr runnumber 0
attr seedset 0
param **.gen.numPrio 5
param **.queue.numPrio 5
param **.queue.preemptive true
param **.queue.resume false
param **.gen.interArrivalTimes "\"0.20 0.25 0.30 0.35 0.40\""
param **.queue.serviceTimes "\"0.20 0.25 0.30 0.35 0.40\""

vector 0 Net.queue qlen:vector ETV
attr interpolationmode sample-hold
attr title "queue length, vector"
0	671 8 0 0 0 0 1 0 0 0 0
vector 1 Net.queue queueingTime:vector ETV
attr interpolationmode none
attr title "queueing time at dequeue, vector"
attr unit s
1	808 10 4 4 0.3 0.3 1 0 0 0 0
0	818 21 5 5 0.489951920031 0.489951920031 1 1 1 1 1
0	839 21 6 6 0.500041762007 0.500041762007 1 2 2 2 4
vector 2 Net.queue responseTime:vector ETV
attr interpolationmode none
attr title "response time at end of service, vector"
attr unit s
0	996 22 10 10 0.678216623121 0.678216623121 1 1 1 1 1
1	1018 35 10 10 0.678216623121 0.678216623121 1 0.178174861114 0.178174861114 0.178174861114 0.031746281132993
2	1053 34 10 10 0.678216623121 0.678216623121 1 0.18826470309 0.18826470309 0.18826470309 0.035443598429566
vector 3 Net.sink lifetime:vector ETV
attr interpolationmode none
attr title "lifetime of arrived msg, vector"
attr unit s
vector 4 Net.sink arrivedMsg:vector ETV
attr interpolationmode none
attr title "number of arrived msg, vector"
3	1321 34 11 11 0.678216623121 0.678216623121 1 0.48826470309 0.48826470309 0.48826470309 0.23840242028357
4	1355 22 11 11 0.678216623121 0.678216623121 1 1 1 1 1
0	1377 22 12 12 0.804521281287 0.804521281287 1 2 2 2 4
0	1399 22 13 13 0.824705856637 0.824705856637 1 3 3 3 9
0	1421 22 14 14 0.878071847476 0.878071847476 1 2 2 2 4
1	1443 35 14 14 0.878071847476 0.878071847476 1 0.378030085469 0.378030085469 0.378030085469 0.1429067455197
2	1478 35 14 14 0.878071847476 0.878071847476 1 0.073550566189 0.073550566189 0.073550566189 0.0054096857867225
3	1513 35 15 15 0.878071847476 0.878071847476 1 0.373550566189 0.373550566189 0.373550566189 0.13954002550012
4	1548 22 15 15 0.878071847476 0.878071847476 1 2 2 2 4
0	1570 22 16 16 0.890340569163 0.890340569163 1 3 3 3 9
0	1592 22 19 19 1.107297208979 1.107297208979 1 2 2 2 4
1	1614 35 19 19 1.107297208979 1.107297208979 1 0.607255446972 0.607255446972 0.607255446972 0.36875917787716
2	1649 35 19 19 1.107297208979 1.107297208979 1 0.216956639816 0.216956639816 0.216956639816 0.04707018356025
3	1684 35 20 20 1.107297208979 1.107297208979 1 0.516956639816 0.516956639816 0.516956639816 0.26724416744985
4	1719 22 20 20 1.107297208979 1.107297208979 1 3 3 3 9
0	1741 22 21 21 1.228479588149 1.228479588149 1 3 3 3 9
0	1763 22 22 22 1.297744633254 1.297744633254 1 4 4 4 16
0	1785 22 23 23 1.411103394688 1.411103394688 1 3 3 3 9
1	1807 35 23 23 1.411103394688 1.411103394688 1 0.911061632681 0.911061632681 0.911061632681 0.83003329854337
2	1842 35 23 23 1.411103394688 1.411103394688 1 0.182623806539 0.182623806539 0.182623806539 0.033351454714794
3	1877 35 24 24 1.411103394688 1.411103394688 1 0.482623806539 0.482623806539 0.482623806539 0.23292573863819
4	1912 22 24 24 1.411103394688 1.411103394688 1 4 4 4 16
0	1934 22 25 25 1.474079605348 1.474079605348 1 2 2 2 4
1	1956 35 25 25 1.474079605348 1.474079605348 1 0.176334972094 0.176334972094 0.176334972094 0.031094022383392
2	1991 35 25 25 1.474079605348 1.474079605348 1 0.974037843341 0.974037843341 0.974037843341 0.94874972026039
3	2026 35 26 26 1.474079605348 1.474079605348 1 1.274037843341 1.274037843341 1.274037843341 1.623172426265
4	2061 22 26 26 1.474079605348 1.474079605348 1 5 5 5 25
0	2083 22 27 27 1.649411479534 1.649411479534 1 1 1 1 1
1	2105 35 27 27 1.649411479534 1.649411479534 1 1.349411479534 1.349411479534 1.349411479534 1.8209113410981
2	2140 34 27 27 1.649411479534 1.649411479534 1 0.35166684628 0.35166684628 0.35166684628 0.12366957077252
3	2174 34 28 28 1.649411479534 1.649411479534 1 0.65166684628 0.65166684628 0.65166684628 0.42466967854052
4	2208 22 28 28 1.649411479534 1.649411479534 1 6 6 6 36
0	2230 22 31 31 2.092872805764 2.092872805764 1 2 2 2 4
0	2252 22 33 33 2.186758364799 2.186758364799 1 1 1 1 1
1	2274 35 33 33 2.186758364799 2.186758364799 1 1.362052508162 1.362052508162 1.362052508162 1.8551870349904
2	2309 35 33 33 2.186758364799 2.186758364799 1 1.886758364799 1.886758364799 1.886758364799 3.559857127139
3	2344 35 34 34 2.186758364799 2.186758364799 1 2.186758364799 2.186758364799 2.186758364799 4.7819121460184
4	2379 22 34 34 2.186758364799 2.186758364799 1 7 7 7 49
0	2401 21 36 36 2.37868941136 2.37868941136 1 2 2 2 4
0	2422 22 37 37 2.410858594703 2.410858594703 1 3 3 3 9
0	2444 22 38 38 2.629166111702 2.629166111702 1 4 4 4 16
0	2466 22 39 39 2.703785947586 2.703785947586 1 3 3 3 9
1	2488 35 39 39 2.703785947586 2.703785947586 1 0.292927352883 0.292927352883 0.292927352883 0.085806434067042
2	2523 35 39 39 2.703785947586 2.703785947586 1 0.325096536226 0.325096536226 0.325096536226 0.10568775786614
3	2558 35 40 40 2.703785947586 2.703785947586 1 0.625096536226 0.625096536226 0.625096536226 0.39074567960174
4	2593 22 40 40 2.703785947586 2.703785947586 1 8 8 8 64

